<?xml version="1.0" encoding="UTF-8"?>

<!-- generated on 2025-11-10 01:02:03.972780 by randomTrips.py v1_24_0+0000-b72eb3fabc8
<configuration>
    <net-file value="osm.net.xml.gz"/>
    <output-trip-file value="osm.passenger.trips.xml"/>
    <route-file value="osm.passenger.rou.xml"/>
    <prefix value="veh"/>
    <trip-attributes value="departLane=&quot;best&quot;"/>
    <fringe-start-attributes value="departSpeed=&quot;max&quot;"/>
    <vehicle-class value="passenger"/>
    <lanes value="True"/>
    <fringe-factor value="5"/>
    <allow-fringe.min-length value="1000.0"/>
    <edge-permission value="passenger"/>
    <via-edge-types value="highway.motorway,highway.motorway_link,highway.trunk_link,highway.primary_link,highway.secondary_link,highway.tertiary_link"/>
    <min-distance value="300.0"/>
    <min-distance.fringe value="10.0"/>
    <remove-loops value="True"/>
    <insertion-density value="7.0"/>
</configuration>
-->

<routes xmlns:xsi="http://www.w3.org/2001/XMLSchema-instance" xsi:noNamespaceSchemaLocation="http://sumo.dlr.de/xsd/routes_file.xsd">
    <vType id="veh_passenger" vClass="passenger"/>
    <trip id="veh0" depart="0.00" from="28121208#4" to="-1287576885#3" departLane="best" type="veh_passenger"/>
    <trip id="veh1" depart="0.75" from="-316859920#2" to="-310211445#0" departLane="best" type="veh_passenger"/>
    <trip id="veh2" depart="1.51" from="313176065#1" to="28419852#6" departLane="best" type="veh_passenger"/>
    <trip id="veh3" depart="2.26" from="361381980" to="-230599349#1" departLane="best" type="veh_passenger" departSpeed="max"/>
    <trip id="veh4" depart="3.01" from="-824731617#1" to="-1303397255#0" departLane="best" type="veh_passenger"/>
    <trip id="veh5" depart="3.76" from="-28451050#4" to="1356405027#4" departLane="best" type="veh_passenger"/>
    <trip id="veh6" depart="4.52" from="-1256466804" to="-28424798#0" departLane="best" type="veh_passenger" departSpeed="max"/>
    <trip id="veh7" depart="5.27" from="28245900#4" to="204014460#0" departLane="best" type="veh_passenger"/>
    <trip id="veh8" depart="6.02" from="-28451169#9" to="232290202#10" departLane="best" type="veh_passenger"/>
    <trip id="veh9" depart="6.77" from="319658472#3" to="-1136147462#0" departLane="best" type="veh_passenger"/>
    <trip id="veh10" depart="7.53" from="319536953#5" to="28451050#7" departLane="best" type="veh_passenger"/>
    <trip id="veh11" depart="8.28" from="-331012883#3" to="-28245882#6" departLane="best" type="veh_passenger"/>
    <trip id="veh12" depart="9.03" from="824764742#1" to="-360294180#0" departLane="best" type="veh_passenger"/>
    <trip id="veh13" depart="9.78" from="-230599258#1" to="-231431523#8" departLane="best" type="veh_passenger"/>
    <trip id="veh14" depart="10.54" from="358229379#4" to="234376524#2" departLane="best" type="veh_passenger"/>
    <trip id="veh15" depart="11.29" from="319658453#1" to="312868521#5" departLane="best" type="veh_passenger"/>
    <trip id="veh16" depart="12.04" from="193442327#2" to="826361124" departLane="best" type="veh_passenger"/>
    <trip id="veh17" depart="12.79" from="-360833422#3" to="229492763#7" departLane="best" type="veh_passenger"/>
    <trip id="veh18" depart="13.55" from="324888746#1" to="26654756" departLane="best" type="veh_passenger"/>
    <trip id="veh19" depart="14.30" from="360299042" to="231431523#2" departLane="best" type="veh_passenger"/>
    <trip id="veh20" depart="15.05" from="28451276#2" to="-168753514" departLane="best" type="veh_passenger"/>
    <trip id="veh21" depart="15.80" from="-295826414#1" to="-319536943#0" departLane="best" type="veh_passenger"/>
    <trip id="veh22" depart="16.56" from="-229492756#12" to="-312868521#4" departLane="best" type="veh_passenger"/>
    <trip id="veh23" depart="17.31" from="-230599358#4" to="-319392748" departLane="best" type="veh_passenger"/>
    <trip id="veh24" depart="18.06" from="28119685#15" to="-360833427#0" departLane="best" type="veh_passenger"/>
    <trip id="veh25" depart="18.81" from="-360339276#2" to="-28485668#0" departLane="best" type="veh_passenger"/>
    <trip id="veh26" depart="19.57" from="-316169372#0" to="728422518#1" departLane="best" type="veh_passenger"/>
    <trip id="veh27" depart="20.32" from="28245882#16" to="257431270#1" departLane="best" type="veh_passenger"/>
    <trip id="veh28" depart="21.07" from="-28245900#5" to="312868520#1" departLane="best" type="veh_passenger"/>
    <trip id="veh29" depart="21.82" from="-28121214#40" to="-43705746#1" departLane="best" type="veh_passenger"/>
    <trip id="veh30" depart="22.58" from="85564976#1" to="28121214#44" departLane="best" type="veh_passenger"/>
    <trip id="veh31" depart="23.33" from="229549750#0" to="28420824" departLane="best" type="veh_passenger"/>
    <trip id="veh32" depart="24.08" from="326154541#1" to="316859941#5" departLane="best" type="veh_passenger"/>
    <trip id="veh33" depart="24.83" from="-295839774#0" to="-1314995814" departLane="best" type="veh_passenger"/>
    <trip id="veh34" depart="25.59" from="-319659818#1" to="-319060204" departLane="best" type="veh_passenger"/>
    <trip id="veh35" depart="26.34" from="-28424644#0" to="754576440#1" departLane="best" type="veh_passenger"/>
    <trip id="veh36" depart="27.09" from="360339253#1" to="-326134790" departLane="best" type="veh_passenger"/>
    <trip id="veh37" depart="27.84" from="28245975#2" to="-822185889#0" departLane="best" type="veh_passenger"/>
    <trip id="veh38" depart="28.60" from="44074639#3" to="1188918425" departLane="best" type="veh_passenger"/>
    <trip id="veh39" depart="29.35" from="-316012365#1" to="-315993723#3" departLane="best" type="veh_passenger"/>
    <trip id="veh40" depart="30.10" from="230578273#1" to="-316859941#1" departLane="best" type="veh_passenger"/>
    <trip id="veh41" depart="30.85" from="231431526#9" to="388965191#14" departLane="best" type="veh_passenger"/>
    <trip id="veh42" depart="31.61" from="86260539#1" to="1387158585#14" departLane="best" type="veh_passenger"/>
    <trip id="veh43" depart="32.36" from="-230594213#0" to="-169679905" departLane="best" type="veh_passenger"/>
    <trip id="veh44" depart="33.11" from="-231431525#6" to="267226922#1" departLane="best" type="veh_passenger"/>
    <trip id="veh45" depart="33.86" from="319392747#11" to="-826165685#0" departLane="best" type="veh_passenger"/>
    <trip id="veh46" depart="34.62" from="-193442317#1" to="-44074639#4" departLane="best" type="veh_passenger"/>
    <trip id="veh47" depart="35.37" from="86260481#4" to="193440380#3" departLane="best" type="veh_passenger"/>
    <trip id="veh48" depart="36.12" from="826345305" to="360297392" departLane="best" type="veh_passenger"/>
    <trip id="veh49" depart="36.87" from="-1189792054" to="31136031#2" departLane="best" type="veh_passenger"/>
    <trip id="veh50" depart="37.63" from="28419907#3" to="193442674#5" departLane="best" type="veh_passenger"/>
    <trip id="veh51" depart="38.38" from="-316169371#0" to="28121227#13" departLane="best" type="veh_passenger"/>
    <trip id="veh52" depart="39.13" from="-231431533#3" to="-843859633#1" departLane="best" type="veh_passenger"/>
    <trip id="veh53" depart="39.88" from="-85568387#2" to="824731620#1" departLane="best" type="veh_passenger"/>
    <trip id="veh54" depart="40.64" from="360339252#2" to="-316860957#1" departLane="best" type="veh_passenger"/>
    <trip id="veh55" depart="41.39" from="1303213724" to="-28413668#9" departLane="best" type="veh_passenger"/>
    <trip id="veh56" depart="42.14" from="43705746#3" to="360314922#0" departLane="best" type="veh_passenger"/>
    <trip id="veh57" depart="42.89" from="234376531" to="-28121247#7" departLane="best" type="veh_passenger"/>
    <trip id="veh58" depart="43.65" from="316325903#0" to="193614218#0" departLane="best" type="veh_passenger"/>
    <trip id="veh59" depart="44.40" from="317375250#0" to="193442317#2" departLane="best" type="veh_passenger"/>
    <trip id="veh60" depart="45.15" from="-1042959303" to="-326154299#3" departLane="best" type="veh_passenger"/>
    <trip id="veh61" depart="45.90" from="-1204836445" to="670967760" departLane="best" type="veh_passenger"/>
    <trip id="veh62" depart="46.66" from="360505304#0" to="326134793#1" departLane="best" type="veh_passenger"/>
    <trip id="veh63" depart="47.41" from="-319658462" to="-193614217#5" departLane="best" type="veh_passenger"/>
    <trip id="veh64" depart="48.16" from="360475671#0" to="822386557" departLane="best" type="veh_passenger"/>
    <trip id="veh65" depart="48.91" from="-229552433#4" to="1256469026#1" departLane="best" type="veh_passenger"/>
    <trip id="veh66" depart="49.67" from="-193442674#1" to="316171203#0" departLane="best" type="veh_passenger"/>
    <trip id="veh67" depart="50.42" from="316357060#2" to="-257431338#11" departLane="best" type="veh_passenger"/>
    <trip id="veh68" depart="51.17" from="1198033078" to="229492756#4" departLane="best" type="veh_passenger" departSpeed="max"/>
    <trip id="veh69" depart="51.92" from="-316012366#1" to="360320062" departLane="best" type="veh_passenger"/>
    <trip id="veh70" depart="52.68" from="-824764728" to="-289066843#5" departLane="best" type="veh_passenger" departSpeed="max"/>
    <trip id="veh71" depart="53.43" from="193442674#3" to="312868521#7" departLane="best" type="veh_passenger"/>
    <trip id="veh72" depart="54.18" from="-28419908#6" to="-326114989" departLane="best" type="veh_passenger"/>
    <trip id="veh73" depart="54.93" from="86258058#2" to="28245958#5" departLane="best" type="veh_passenger"/>
    <trip id="veh74" depart="55.69" from="-826361118#3" to="142759061#20" departLane="best" type="veh_passenger"/>
    <trip id="veh75" depart="56.44" from="-232290206#11" to="-31136038#8" departLane="best" type="veh_passenger"/>
    <trip id="veh76" depart="57.19" from="-326154540#1" to="232197853#9" departLane="best" type="veh_passenger"/>
    <trip id="veh77" depart="57.94" from="-299483418#0" to="-302534426#1" departLane="best" type="veh_passenger"/>
    <trip id="veh78" depart="58.70" from="-193612730#0" to="28119664#8" departLane="best" type="veh_passenger"/>
    <trip id="veh79" depart="59.45" from="-295839766#5" to="396126129#6" departLane="best" type="veh_passenger"/>
    <trip id="veh80" depart="60.20" from="360297391#0" to="-229548700#4" departLane="best" type="veh_passenger" departSpeed="max"/>
    <trip id="veh81" depart="60.95" from="-310211446#1" to="28413666#2" departLane="best" type="veh_passenger"/>
    <trip id="veh82" depart="61.71" from="-28439150#0" to="-26654372#5" departLane="best" type="veh_passenger"/>
    <trip id="veh83" depart="62.46" from="728422518#0" to="230599363#1" departLane="best" type="veh_passenger"/>
    <trip id="veh84" depart="63.21" from="1189374440#2" to="319091461#0" departLane="best" type="veh_passenger"/>
    <trip id="veh85" depart="63.96" from="319658457#5" to="-28419989#4" departLane="best" type="veh_passenger"/>
    <trip id="veh86" depart="64.72" from="-230599326#1" to="-827219346#0" departLane="best" type="veh_passenger" departSpeed="max"/>
    <trip id="veh87" depart="65.47" from="-824764735" to="1202288396#3" departLane="best" type="veh_passenger"/>
    <trip id="veh88" depart="66.22" from="31257277#10" to="28413715#3" departLane="best" type="veh_passenger"/>
    <trip id="veh89" depart="66.97" from="843859633#3" to="-231431526#1" departLane="best" type="veh_passenger"/>
    <trip id="veh90" depart="67.73" from="-50218341#5" to="-360299040#0" departLane="best" type="veh_passenger"/>
    <trip id="veh91" depart="68.48" from="360299042" to="-316003313#2" departLane="best" type="veh_passenger"/>
    <trip id="veh92" depart="69.23" from="-28413665#3" to="1046715711" departLane="best" type="veh_passenger"/>
    <trip id="veh93" depart="69.98" from="-824731617#1" to="-319392752#0" departLane="best" type="veh_passenger"/>
    <trip id="veh94" depart="70.74" from="-313176060#0" to="50335622#3" departLane="best" type="veh_passenger"/>
    <trip id="veh95" depart="71.49" from="-826411006" to="360299040#11" departLane="best" type="veh_passenger"/>
    <trip id="veh96" depart="72.24" from="229486918#6" to="-193442317#12" departLane="best" type="veh_passenger"/>
    <trip id="veh97" depart="72.99" from="947088785#2" to="326154273" departLane="best" type="veh_passenger"/>
    <trip id="veh98" depart="73.75" from="826132292#0" to="518467877#1" departLane="best" type="veh_passenger"/>
    <trip id="veh99" depart="74.50" from="358302717#0" to="-28246020#4" departLane="best" type="veh_passenger"/>
    <trip id="veh100" depart="75.25" from="1203055477#2" to="-295826414#3" departLane="best" type="veh_passenger"/>
    <trip id="veh101" depart="76.00" from="-468647368" to="-193614218#4" departLane="best" type="veh_passenger"/>
    <trip id="veh102" depart="76.76" from="-360833426#1" to="843981532#0" departLane="best" type="veh_passenger"/>
    <trip id="veh103" depart="77.51" from="-316012366#3" to="319091457" departLane="best" type="veh_passenger"/>
    <trip id="veh104" depart="78.26" from="-86222527#7" to="-826361112" departLane="best" type="veh_passenger"/>
    <trip id="veh105" depart="79.01" from="824764744#0" to="86258060#3" departLane="best" type="veh_passenger"/>
    <trip id="veh106" depart="79.77" from="229520774#1" to="30876667#1" departLane="best" type="veh_passenger"/>
    <trip id="veh107" depart="80.52" from="-276196056#6" to="-319659801#0" departLane="best" type="veh_passenger"/>
    <trip id="veh108" depart="81.27" from="826132287#3" to="231431525#4" departLane="best" type="veh_passenger"/>
    <trip id="veh109" depart="82.02" from="193614218#4" to="315477294#1" departLane="best" type="veh_passenger"/>
    <trip id="veh110" depart="82.78" from="-155751165#6" to="232197844#4" departLane="best" type="veh_passenger"/>
    <trip id="veh111" depart="83.53" from="1303276645#1" to="358318317#3" departLane="best" type="veh_passenger"/>
    <trip id="veh112" depart="84.28" from="-28119664#33" to="824859283#2" departLane="best" type="veh_passenger"/>
    <trip id="veh113" depart="85.03" from="-229492756#4" to="-28419868#4" departLane="best" type="veh_passenger"/>
    <trip id="veh114" depart="85.79" from="232290206#7" to="28419825#2" departLane="best" type="veh_passenger"/>
    <trip id="veh115" depart="86.54" from="-302558162#0" to="-233244486#2" departLane="best" type="veh_passenger"/>
    <trip id="veh116" depart="87.29" from="361378167#0" to="-315993721#0" departLane="best" type="veh_passenger"/>
    <trip id="veh117" depart="88.04" from="232290206#10" to="267226850#0" departLane="best" type="veh_passenger"/>
    <trip id="veh118" depart="88.80" from="-823441932#1" to="231443027#1" departLane="best" type="veh_passenger"/>
    <trip id="veh119" depart="89.55" from="155751165#11" to="728048255#0" departLane="best" type="veh_passenger"/>
    <trip id="veh120" depart="90.30" from="-28419989#3" to="302534427" departLane="best" type="veh_passenger"/>
    <trip id="veh121" depart="91.05" from="-31136038#0" to="-822185889#2" departLane="best" type="veh_passenger"/>
    <trip id="veh122" depart="91.81" from="28413665#5" to="-319659815#4" departLane="best" type="veh_passenger"/>
    <trip id="veh123" depart="92.56" from="-319662510#5" to="315993723#5" departLane="best" type="veh_passenger"/>
    <trip id="veh124" depart="93.31" from="-193614218#9" to="1188918411#0" departLane="best" type="veh_passenger"/>
    <trip id="veh125" depart="94.06" from="86263898#3" to="86260506#1" departLane="best" type="veh_passenger"/>
    <trip id="veh126" depart="94.82" from="-193614222#1" to="-295826411#3" departLane="best" type="veh_passenger"/>
    <trip id="veh127" depart="95.57" from="-316012366#3" to="728048247" departLane="best" type="veh_passenger"/>
    <trip id="veh128" depart="96.32" from="360823230#0" to="360691132#2" departLane="best" type="veh_passenger"/>
    <trip id="veh129" depart="97.07" from="-360339271#1" to="-28245914#3" departLane="best" type="veh_passenger"/>
    <trip id="veh130" depart="97.83" from="326134800#5" to="28485664#4" departLane="best" type="veh_passenger"/>
    <trip id="veh131" depart="98.58" from="24563843#2" to="85564958#5" departLane="best" type="veh_passenger"/>
    <trip id="veh132" depart="99.33" from="28245970#0" to="-1189374440#2" departLane="best" type="veh_passenger"/>
    <trip id="veh133" depart="100.08" from="319662510#5" to="-319659809#4" departLane="best" type="veh_passenger"/>
    <trip id="veh134" depart="100.84" from="28275806#3" to="729016165#1" departLane="best" type="veh_passenger"/>
    <trip id="veh135" depart="101.59" from="-235210803#0" to="-232295578#0" departLane="best" type="veh_passenger"/>
    <trip id="veh136" depart="102.34" from="-231431523#0" to="229549749#0" departLane="best" type="veh_passenger"/>
    <trip id="veh137" depart="103.09" from="-316621879#1" to="234376533#1" departLane="best" type="veh_passenger"/>
    <trip id="veh138" depart="103.85" from="302534427" to="-28439243#2" departLane="best" type="veh_passenger"/>
    <trip id="veh139" depart="104.60" from="28119678#2" to="-317375241" departLane="best" type="veh_passenger"/>
    <trip id="veh140" depart="105.35" from="1216005826#0" to="396126129#5" departLane="best" type="veh_passenger" departSpeed="max"/>
    <trip id="veh141" depart="106.10" from="358036180" to="-231429516#2" departLane="best" type="veh_passenger"/>
    <trip id="veh142" depart="106.86" from="-824764735" to="-319392744#7" departLane="best" type="veh_passenger"/>
    <trip id="veh143" depart="107.61" from="-1059854105#2" to="316747149#2" departLane="best" type="veh_passenger"/>
    <trip id="veh144" depart="108.36" from="28121154#0" to="-316859935#1" departLane="best" type="veh_passenger"/>
    <trip id="veh145" depart="109.11" from="314269352#13" to="229492763#1" departLane="best" type="veh_passenger"/>
    <trip id="veh146" depart="109.87" from="-824818914" to="-1194676642#0" departLane="best" type="veh_passenger"/>
    <trip id="veh147" depart="110.62" from="-193673782#9" to="360829793" departLane="best" type="veh_passenger"/>
    <trip id="veh148" depart="111.37" from="396126129#5" to="22837906#1-AddedOnRampEdge" departLane="best" type="veh_passenger"/>
    <trip id="veh149" depart="112.12" from="326134802#2" to="231442867#1" departLane="best" type="veh_passenger"/>
    <trip id="veh150" depart="112.88" from="-267226872#1" to="-257431318#1" departLane="best" type="veh_passenger"/>
    <trip id="veh151" depart="113.63" from="-319658469#1" to="388965191#8" departLane="best" type="veh_passenger"/>
    <trip id="veh152" depart="114.38" from="319392761#0" to="360297391#1" departLane="best" type="veh_passenger"/>
    <trip id="veh153" depart="115.13" from="396121253#3" to="-28485686#0" departLane="best" type="veh_passenger"/>
    <trip id="veh154" depart="115.89" from="-313176055#3" to="-232197844#5" departLane="best" type="veh_passenger"/>
    <trip id="veh155" depart="116.64" from="317752769#0" to="360829801#0" departLane="best" type="veh_passenger"/>
    <trip id="veh156" depart="117.39" from="-632625105#3" to="267226865#2" departLane="best" type="veh_passenger"/>
    <trip id="veh157" depart="118.14" from="-276196056#1" to="727779328#0" departLane="best" type="veh_passenger"/>
    <trip id="veh158" depart="118.90" from="360301031" to="826411004" departLane="best" type="veh_passenger"/>
    <trip id="veh159" depart="119.65" from="319659792#1" to="360823231#1" departLane="best" type="veh_passenger"/>
    <trip id="veh160" depart="120.40" from="-1256428406" to="314207426" departLane="best" type="veh_passenger" departSpeed="max"/>
    <trip id="veh161" depart="121.15" from="319511469#6" to="360299051#1" departLane="best" type="veh_passenger"/>
    <trip id="veh162" depart="121.91" from="319659792#0" to="-319059455" departLane="best" type="veh_passenger"/>
    <trip id="veh163" depart="122.66" from="319392726#0" to="-232290202#4" departLane="best" type="veh_passenger"/>
    <trip id="veh164" depart="123.41" from="360320063" to="360294194#2" departLane="best" type="veh_passenger"/>
    <trip id="veh165" depart="124.16" from="-28485664#1" to="319659819#1" departLane="best" type="veh_passenger"/>
    <trip id="veh166" depart="124.92" from="-947088783" to="-319662794#2" departLane="best" type="veh_passenger"/>
    <trip id="veh167" depart="125.67" from="319392757#3" to="-311851901#0" departLane="best" type="veh_passenger"/>
    <trip id="veh168" depart="126.42" from="-1232161310#2" to="-28420852#10" departLane="best" type="veh_passenger"/>
    <trip id="veh169" depart="127.17" from="-326134772#0" to="360299052#3" departLane="best" type="veh_passenger"/>
    <trip id="veh170" depart="127.93" from="826123060#3" to="-319392754#2" departLane="best" type="veh_passenger"/>
    <trip id="veh171" depart="128.68" from="28121214#30" to="-822247615" departLane="best" type="veh_passenger"/>
    <trip id="veh172" depart="129.43" from="8285857#20" to="193442671#4" departLane="best" type="veh_passenger"/>
    <trip id="veh173" depart="130.18" from="747763040#3" to="-232295577#0" departLane="best" type="veh_passenger"/>
    <trip id="veh174" depart="130.94" from="826165685#0" to="-28413668#7" departLane="best" type="veh_passenger" departSpeed="max"/>
    <trip id="veh175" depart="131.69" from="824818919" to="-317375252#10" departLane="best" type="veh_passenger"/>
    <trip id="veh176" depart="132.44" from="-231431524#10" to="-843859633#0" departLane="best" type="veh_passenger"/>
    <trip id="veh177" depart="133.19" from="312382957" to="-326134772#0" departLane="best" type="veh_passenger"/>
    <trip id="veh178" depart="133.95" from="233249034#4" to="1387160568#0" departLane="best" type="veh_passenger"/>
    <trip id="veh179" depart="134.70" from="-361380211" to="231431522#5" departLane="best" type="veh_passenger"/>
    <trip id="veh180" depart="135.45" from="-314667210#7" to="295826414#1" departLane="best" type="veh_passenger"/>
    <trip id="veh181" depart="136.20" from="-1042961560" to="50336415#8" departLane="best" type="veh_passenger"/>
    <trip id="veh182" depart="136.96" from="193442671#0" to="309850377#0" departLane="best" type="veh_passenger"/>
    <trip id="veh183" depart="137.71" from="314269352#6" to="28413672#2" departLane="best" type="veh_passenger"/>
    <trip id="veh184" depart="138.46" from="-360314930#1" to="-229492763#1" departLane="best" type="veh_passenger"/>
    <trip id="veh185" depart="139.21" from="28275807#2" to="-358302717#6" departLane="best" type="veh_passenger"/>
    <trip id="veh186" depart="139.97" from="-319659808#4" to="358302710#4" departLane="best" type="veh_passenger"/>
    <trip id="veh187" depart="140.72" from="305502411#1" to="-319659817" departLane="best" type="veh_passenger"/>
    <trip id="veh188" depart="141.47" from="-319659786#0" to="-824731622" departLane="best" type="veh_passenger"/>
    <trip id="veh189" depart="142.22" from="-50218341#2" to="-319659795#1" departLane="best" type="veh_passenger"/>
    <trip id="veh190" depart="142.98" from="-232295578#1" to="-826123060#2" departLane="best" type="veh_passenger"/>
    <trip id="veh191" depart="143.73" from="747778887" to="28419858#2" departLane="best" type="veh_passenger"/>
    <trip id="veh192" depart="144.48" from="396126123#4" to="26652692#2" departLane="best" type="veh_passenger"/>
    <trip id="veh193" depart="145.23" from="-319510012" to="229486918#9" departLane="best" type="veh_passenger"/>
    <trip id="veh194" depart="145.99" from="-1042958049" to="-319510018#4" departLane="best" type="veh_passenger" departSpeed="max"/>
    <trip id="veh195" depart="146.74" from="-824859292#0" to="231431526#3" departLane="best" type="veh_passenger"/>
    <trip id="veh196" depart="147.49" from="28245970#2" to="1201217748#3" departLane="best" type="veh_passenger"/>
    <trip id="veh197" depart="148.24" from="-826375736#1" to="-295826414#2" departLane="best" type="veh_passenger"/>
    <trip id="veh198" depart="149.00" from="1189374441#0" to="396121468#0" departLane="best" type="veh_passenger"/>
    <trip id="veh199" depart="149.75" from="319392760#3" to="-28275806#15" departLane="best" type="veh_passenger"/>
    <trip id="veh200" depart="150.50" from="-229549754#5" to="1391770844" departLane="best" type="veh_passenger"/>
    <trip id="veh201" depart="151.25" from="28119664#32" to="-360289195#0" departLane="best" type="veh_passenger"/>
    <trip id="veh202" depart="152.01" from="319662528#1" to="315993719#0" departLane="best" type="veh_passenger"/>
    <trip id="veh203" depart="152.76" from="28413668#13" to="-31136038#8" departLane="best" type="veh_passenger"/>
    <trip id="veh204" depart="153.51" from="-28419858#1" to="-1265051481#1" departLane="best" type="veh_passenger"/>
    <trip id="veh205" depart="154.26" from="-31257291#11" to="1205422781" departLane="best" type="veh_passenger"/>
    <trip id="veh206" depart="155.02" from="358302725#2" to="-229552429" departLane="best" type="veh_passenger"/>
    <trip id="veh207" depart="155.77" from="-822239685" to="28119664#20" departLane="best" type="veh_passenger"/>
    <trip id="veh208" depart="156.52" from="-28413689#2" to="28439232#5" departLane="best" type="veh_passenger"/>
    <trip id="veh209" depart="157.27" from="1256468079" to="-315927362#3" departLane="best" type="veh_passenger"/>
    <trip id="veh210" depart="158.03" from="28245983#1" to="-1100816193#1" departLane="best" type="veh_passenger"/>
    <trip id="veh211" depart="158.78" from="315993717#0" to="316622212#8" departLane="best" type="veh_passenger"/>
    <trip id="veh212" depart="159.53" from="-231431522#0" to="-826361127#1" departLane="best" type="veh_passenger"/>
    <trip id="veh213" depart="160.28" from="-28245970#2" to="824768477" departLane="best" type="veh_passenger"/>
    <trip id="veh214" depart="161.04" from="140226538#0" to="-193442315#1" departLane="best" type="veh_passenger"/>
    <trip id="veh215" depart="161.79" from="-313176051#9" to="358302717#0" departLane="best" type="veh_passenger"/>
    <trip id="veh216" depart="162.54" from="-86258058#2" to="319510016#1" departLane="best" type="veh_passenger"/>
    <trip id="veh217" depart="163.29" from="28413610#1" to="85564968#2" departLane="best" type="veh_passenger"/>
    <trip id="veh218" depart="164.05" from="232290595#1" to="823441930#1" departLane="best" type="veh_passenger"/>
    <trip id="veh219" depart="164.80" from="361380214" to="258147036#1" departLane="best" type="veh_passenger"/>
    <trip id="veh220" depart="165.55" from="305502408#8" to="132901844#2" departLane="best" type="veh_passenger"/>
    <trip id="veh221" depart="166.30" from="326134762" to="229486918#8" departLane="best" type="veh_passenger"/>
    <trip id="veh222" depart="167.06" from="388965191#4" to="314667211#2" departLane="best" type="veh_passenger"/>
    <trip id="veh223" depart="167.81" from="1194676642#0" to="-316622214#4" departLane="best" type="veh_passenger" departSpeed="max"/>
    <trip id="veh224" depart="168.56" from="-312868522#3" to="28121214#13" departLane="best" type="veh_passenger"/>
    <trip id="veh225" depart="169.31" from="316357060#2" to="155751165#3" departLane="best" type="veh_passenger"/>
    <trip id="veh226" depart="170.07" from="267226886#1" to="-319392733#0" departLane="best" type="veh_passenger"/>
    <trip id="veh227" depart="170.82" from="-229486918#3" to="-319510013#2" departLane="best" type="veh_passenger"/>
    <trip id="veh228" depart="171.57" from="-316621350#1" to="-326154270" departLane="best" type="veh_passenger"/>
    <trip id="veh229" depart="172.32" from="193442676#5" to="-267226900#5" departLane="best" type="veh_passenger"/>
    <trip id="veh230" depart="173.08" from="-301418944#4" to="28439162#1" departLane="best" type="veh_passenger"/>
    <trip id="veh231" depart="173.83" from="28485664#4" to="-229486918#1" departLane="best" type="veh_passenger"/>
    <trip id="veh232" depart="174.58" from="-727863538#2" to="193673088#0" departLane="best" type="veh_passenger"/>
    <trip id="veh233" depart="175.33" from="-822386557" to="-28451181#2" departLane="best" type="veh_passenger"/>
    <trip id="veh234" depart="176.09" from="-823441941" to="396126123#8" departLane="best" type="veh_passenger" departSpeed="max"/>
    <trip id="veh235" depart="176.84" from="231431526#14" to="28439212#1" departLane="best" type="veh_passenger"/>
    <trip id="veh236" depart="177.59" from="360289197#1" to="316357060#3" departLane="best" type="veh_passenger"/>
    <trip id="veh237" depart="178.34" from="-361363851" to="-1125335010" departLane="best" type="veh_passenger"/>
    <trip id="veh238" depart="179.10" from="-360294187#0" to="316003313#3" departLane="best" type="veh_passenger"/>
    <trip id="veh239" depart="179.85" from="358321869#1" to="824731617#0" departLane="best" type="veh_passenger"/>
    <trip id="veh240" depart="180.60" from="-823441931#1" to="315477291#3" departLane="best" type="veh_passenger"/>
    <trip id="veh241" depart="181.35" from="193674345#0" to="234376519#1" departLane="best" type="veh_passenger"/>
    <trip id="veh242" depart="182.11" from="-28451181#0" to="-301736113" departLane="best" type="veh_passenger"/>
    <trip id="veh243" depart="182.86" from="-826165678" to="-1303277812" departLane="best" type="veh_passenger"/>
    <trip id="veh244" depart="183.61" from="-326154293#0" to="28419908#3" departLane="best" type="veh_passenger"/>
    <trip id="veh245" depart="184.36" from="-50336408#0" to="-28245996#5" departLane="best" type="veh_passenger"/>
    <trip id="veh246" depart="185.12" from="1075468270#4" to="-257431320#0" departLane="best" type="veh_passenger"/>
    <trip id="veh247" depart="185.87" from="267226848#1" to="-1298275435" departLane="best" type="veh_passenger"/>
    <trip id="veh248" depart="186.62" from="-43705647#4" to="230599273#1" departLane="best" type="veh_passenger"/>
    <trip id="veh249" depart="187.37" from="-1256467955#1" to="28121247#14" departLane="best" type="veh_passenger"/>