<configuration>
    <input>
        <net-file value="map.net.xml"/>
        <route-files value="routes.rou.xml"/>
    </input>
    
    <processing>
        <ignore-route-errors value="true"/>
    </processing>

</configuration>