<?xml version="1.0" encoding="UTF-8"?>

<!-- generated on 2025-11-09 12:07:04 by Eclipse SUMO duarouter Version 1.24.0
<duarouterConfiguration xmlns:xsi="http://www.w3.org/2001/XMLSchema-instance" xsi:noNamespaceSchemaLocation="http://sumo.dlr.de/xsd/duarouterConfiguration.xsd">

    <input>
        <net-file value="map.net.xml"/>
        <route-files value="routes.rou.xml"/>
    </input>

    <output>
        <output-file value="routes.rou.xml.tmp"/>
        <alternatives-output value="NUL"/>
        <write-trips value="true"/>
    </output>

    <time>
        <begin value="0"/>
        <end value="99999.0"/>
    </time>

    <report>
        <no-warnings value="true"/>
        <ignore-errors value="true"/>
        <no-step-log value="true"/>
    </report>

</duarouterConfiguration>
-->

<routes xmlns:xsi="http://www.w3.org/2001/XMLSchema-instance" xsi:noNamespaceSchemaLocation="http://sumo.dlr.de/xsd/routes_file.xsd">
    <trip id="0" depart="0.00" from="-231431526#14" to="28245970#8"/>
    <trip id="1" depart="0.13" from="43231082#3" to="-231443028#0"/>
    <trip id="2" depart="0.25" from="-729016165#0" to="28419825#0"/>
    <trip id="3" depart="0.38" from="-28275778#1" to="28275828#4"/>
    <trip id="4" depart="0.51" from="-826361113#0" to="844268677#0"/>
    <trip id="5" depart="0.64" from="-319659802#13" to="230599357#1"/>
    <trip id="6" depart="0.76" from="-319091451#2" to="230599349#3"/>
    <trip id="7" depart="0.89" from="1356405029" to="132370467#1"/>
    <trip id="8" depart="1.02" from="1194676641#1" to="-230594200#8"/>
    <trip id="9" depart="1.14" from="28413646#17" to="316524162#1"/>
    <trip id="10" depart="1.27" from="-728422520#2" to="-230599375"/>
    <trip id="11" depart="1.40" from="-86258058#5" to="-230599273#0"/>
    <trip id="12" depart="1.52" from="302534423#1" to="-1059854110"/>
    <trip id="13" depart="1.65" from="358229380#2" to="-826123069#1"/>
    <trip id="14" depart="1.78" from="-28121206#1" to="326114995#4"/>
    <trip id="15" depart="1.91" from="86260506#6" to="-358304913#2"/>
    <trip id="16" depart="2.03" from="324888738#6" to="-728025063#0"/>
    <trip id="17" depart="2.16" from="1059854102#1" to="360314564#0"/>
    <trip id="18" depart="2.29" from="28422538#2" to="-319658578#0"/>
    <trip id="19" depart="2.41" from="360314907#1" to="28121247#15"/>
    <trip id="20" depart="2.54" from="28451047#4" to="1042959683#0"/>
    <trip id="21" depart="2.67" from="-826123055#1" to="-319659802#1"/>
    <trip id="22" depart="2.79" from="-28451201#0" to="1203020775#0"/>
    <trip id="23" depart="2.92" from="-32727500#3" to="826123047"/>
    <trip id="24" depart="3.05" from="28451181#0" to="728936306#0"/>
    <trip id="25" depart="3.18" from="-229552440#0" to="-50218330#3"/>
    <trip id="26" depart="3.30" from="319091469#0" to="28413725#6"/>
    <trip id="27" depart="3.43" from="319659815#7" to="86260506#4"/>
    <trip id="28" depart="3.56" from="28419913#7" to="-319662510#5"/>
    <trip id="29" depart="3.68" from="28275806#0" to="193614217#0"/>
    <trip id="30" depart="3.81" from="1298275430#0" to="312017990#0"/>
    <trip id="31" depart="3.94" from="-360299040#15" to="822205850#2"/>
    <trip id="32" depart="4.06" from="-28121247#5" to="28245914#7"/>
    <trip id="33" depart="4.19" from="309850377#1" to="-319392763#5"/>
    <trip id="34" depart="4.32" from="319392767#5" to="276196064"/>
    <trip id="35" depart="4.45" from="1203020774#8" to="311851899#0"/>
    <trip id="36" depart="4.57" from="-142759061#16" to="230599331#2"/>
    <trip id="37" depart="4.70" from="28121214#2" to="-1303213724"/>
    <trip id="38" depart="4.83" from="326134800#4" to="326154259#6"/>
    <trip id="39" depart="4.95" from="267226848#2" to="231431523#14"/>
    <trip id="40" depart="5.08" from="229492751#1" to="-231429519#5"/>
    <trip id="41" depart="5.21" from="396121253#2" to="-142759061#5"/>
    <trip id="42" depart="5.33" from="-193442320#2" to="-242786618#10"/>
    <trip id="43" depart="5.46" from="-326151104#1" to="320649154#0"/>
    <trip id="44" depart="5.59" from="299208600#2" to="229492756#1"/>
    <trip id="45" depart="5.72" from="1133370035#2" to="230594200#1"/>
    <trip id="46" depart="5.84" from="-232291716#0" to="302534423#1"/>
    <trip id="47" depart="5.97" from="-311852705" to="-232197850#1"/>
    <trip id="48" depart="6.10" from="-28121247#10" to="-326114996#2"/>
    <trip id="49" depart="6.22" from="-231442869#2" to="316859929#0"/>
    <trip id="50" depart="6.35" from="242786626#0" to="257431311#0"/>
    <trip id="51" depart="6.48" from="-360289190" to="-230599355#0"/>
    <trip id="52" depart="6.60" from="267226849#0" to="-319659791#2"/>
    <trip id="53" depart="6.73" from="232340604" to="360339250#0"/>
    <trip id="54" depart="6.86" from="43705783#3" to="319658464"/>
    <trip id="55" depart="6.99" from="311851900#0" to="159820441#0"/>
    <trip id="56" depart="7.11" from="319392747#5" to="-231431526#6"/>
    <trip id="57" depart="7.24" from="44074681#6" to="-28420852#9"/>
    <trip id="58" depart="7.37" from="-1387158584" to="-28275779#14"/>
    <trip id="59" depart="7.49" from="360294199#0" to="728048251"/>
    <trip id="60" depart="7.62" from="358304918#1" to="-43706093#9"/>
    <trip id="61" depart="7.75" from="-232197853#4" to="315993724#0"/>
    <trip id="62" depart="7.87" from="-826361118#6" to="86222527#8"/>
    <trip id="63" depart="8.00" from="-86258058#3" to="193440379#2"/>
    <trip id="64" depart="8.13" from="-319658457#4" to="28413646#2"/>
    <trip id="65" depart="8.26" from="-302534426#3" to="-848251797#2"/>
    <trip id="66" depart="8.38" from="-316860974#0" to="28121252#10"/>
    <trip id="67" depart="8.51" from="231429522#3" to="301611289#0"/>
    <trip id="68" depart="8.64" from="232291716#3" to="28245885#2"/>
    <trip id="69" depart="8.76" from="-232295586#4" to="28485670#3"/>
    <trip id="70" depart="8.89" from="312382957" to="-28245914#6"/>
    <trip id="71" depart="9.02" from="311851900#2" to="28245882#3"/>
    <trip id="72" depart="9.14" from="-824859289" to="-311851901#2"/>
    <trip id="73" depart="9.27" from="305502406#1" to="319662516#2"/>
    <trip id="74" depart="9.40" from="316621879#18" to="276196062#1"/>
    <trip id="75" depart="9.53" from="31257291#7" to="295826410#0"/>
    <trip id="76" depart="9.65" from="28413675#2" to="-824768477"/>
    <trip id="77" depart="9.78" from="-168748491#0" to="28121247#4"/>
    <trip id="78" depart="9.91" from="-230599267#2" to="316003313#1"/>
    <trip id="79" depart="10.03" from="-1390429211" to="28245983#3"/>
    <trip id="80" depart="10.16" from="28413646#15" to="193442670#5"/>
    <trip id="81" depart="10.29" from="28119685#2" to="-28419899#7"/>
    <trip id="82" depart="10.41" from="316859922#1" to="8285900#0"/>
    <trip id="83" depart="10.54" from="-316860957#1" to="-229492752#2"/>
    <trip id="84" depart="10.67" from="230599365#1" to="232290202#0"/>
    <trip id="85" depart="10.80" from="-229549749#1" to="28245970#7"/>
    <trip id="86" depart="10.92" from="85578073#0" to="28121214#37"/>
    <trip id="87" depart="11.05" from="-28246049#1" to="424863180#1"/>
    <trip id="88" depart="11.18" from="8285857#14" to="-232197847#2"/>
    <trip id="89" depart="11.30" from="824764748#1" to="324888741"/>
    <trip id="90" depart="11.43" from="-319659806#1" to="-316524983#7"/>
    <trip id="91" depart="11.56" from="314218051#4" to="-360829799#0"/>
    <trip id="92" depart="11.68" from="-360829796#0" to="-232197850#1"/>
    <trip id="93" depart="11.81" from="-360299048#1" to="28246008#6"/>
    <trip id="94" depart="11.94" from="326154282#2" to="-28275778#4"/>
    <trip id="95" depart="12.07" from="-242786618#5" to="232340603#1"/>
    <trip id="96" depart="12.19" from="822573615#1" to="-232290600#3"/>
    <trip id="97" depart="12.32" from="-229492753" to="-319659802#6"/>
    <trip id="98" depart="12.45" from="326134800#0" to="314269338#1"/>
    <trip id="99" depart="12.57" from="-824766242" to="1188918421"/>
    <trip id="100" depart="12.70" from="326134794#4" to="822233244#0"/>
    <trip id="101" depart="12.83" from="826165682#0" to="-319392767#10"/>
    <trip id="102" depart="12.95" from="8285857#5" to="-319392747#10"/>
    <trip id="103" depart="13.08" from="826165685#1" to="-319392757#3"/>
    <trip id="104" depart="13.21" from="-28419947#0" to="-319392726#7"/>
    <trip id="105" depart="13.34" from="28451047#0" to="-28439197#19"/>
    <trip id="106" depart="13.46" from="316325904#1" to="324888738#1"/>
    <trip id="107" depart="13.59" from="-28245958#8" to="319392732#0"/>
    <trip id="108" depart="13.72" from="-43107618#4" to="232340604"/>
    <trip id="109" depart="13.84" from="-232340603#2" to="-229552436#2"/>
    <trip id="110" depart="13.97" from="316169372#9" to="361378160"/>
    <trip id="111" depart="14.10" from="232295574#0" to="193614218#7"/>
    <trip id="112" depart="14.22" from="312868519#1" to="-316621879#12"/>
    <trip id="113" depart="14.35" from="-1256477693#1" to="823441932#2"/>
    <trip id="114" depart="14.48" from="-319091461#0" to="193442326#3"/>
    <trip id="115" depart="14.61" from="319662510#4" to="312018294#0"/>
    <trip id="116" depart="14.73" from="231442866#2" to="319659824#0"/>
    <trip id="117" depart="14.86" from="28246049#2" to="1256468079"/>
    <trip id="118" depart="14.99" from="-315268371#1" to="-28245964#7"/>
    <trip id="119" depart="15.11" from="-360833424#0" to="-1390429207#0"/>
    <trip id="120" depart="15.24" from="-728936301" to="-1046715720"/>
    <trip id="121" depart="15.37" from="319060202#2" to="-142759061#23"/>
    <trip id="122" depart="15.49" from="-193612723#3" to="257431311#2"/>
    <trip id="123" depart="15.62" from="232197844#4" to="-28245925#4"/>
    <trip id="124" depart="15.75" from="313176062#1" to="-230594197#2"/>
    <trip id="125" depart="15.88" from="242786620#1" to="-305502407#1"/>
    <trip id="126" depart="16.00" from="28424606#2" to="360483312#1"/>
    <trip id="127" depart="16.13" from="-360330176#2" to="-232290599#0"/>
    <trip id="128" depart="16.26" from="-232197849#10" to="1203055475#3"/>
    <trip id="129" depart="16.38" from="747778884#1" to="235362390#1"/>
    <trip id="130" depart="16.51" from="360823233#1" to="43230735#3"/>
    <trip id="131" depart="16.64" from="85564958#0" to="311852703#2"/>
    <trip id="132" depart="16.76" from="-1202749279" to="-315927363#1"/>
    <trip id="133" depart="16.89" from="28419825#8" to="-1254815767#2"/>
    <trip id="134" depart="17.02" from="360314918#2" to="235362390#4"/>
    <trip id="135" depart="17.15" from="383440537#0" to="28275808#0"/>
    <trip id="136" depart="17.27" from="319662516#1" to="43705739#5"/>
    <trip id="137" depart="17.40" from="-425981520#0" to="43705739#4"/>
    <trip id="138" depart="17.53" from="-326151112" to="360320065"/>
    <trip id="139" depart="17.65" from="85568167#9" to="28119685#13"/>
    <trip id="140" depart="17.78" from="28275778#7" to="232337268#12"/>
    <trip id="141" depart="17.91" from="28419989#7" to="232290202#0"/>
    <trip id="142" depart="18.03" from="826123055#1" to="28413684#9"/>
    <trip id="143" depart="18.16" from="-1303398339" to="-326154544#1"/>
    <trip id="144" depart="18.29" from="360289200#1" to="-1356405029"/>
    <trip id="145" depart="18.42" from="-360294225#5" to="319091464#2"/>
    <trip id="146" depart="18.54" from="-316169623" to="321934589#2"/>
    <trip id="147" depart="18.67" from="319659795#0" to="326151116#0"/>
    <trip id="148" depart="18.80" from="-230599349#1" to="315993728"/>
    <trip id="149" depart="18.92" from="319659802#8" to="232295585#2"/>
    <trip id="150" depart="19.05" from="28424753#2" to="-360833426#0"/>
    <trip id="151" depart="19.18" from="28419989#2" to="1314996834#1"/>
    <trip id="152" depart="19.30" from="-361380213" to="-360301037#0"/>
    <trip id="153" depart="19.43" from="28245958#1" to="822239684#2"/>
    <trip id="154" depart="19.56" from="-85568167#5" to="-826118154#0"/>
    <trip id="155" depart="19.69" from="-1059854105#0" to="-232290197#0"/>
    <trip id="156" depart="19.81" from="1303398339" to="312017990#0"/>
    <trip id="157" depart="19.94" from="361380212" to="-360339261"/>
    <trip id="158" depart="20.07" from="28245985#3" to="-1189374440#0"/>
    <trip id="159" depart="20.19" from="-301736112#1" to="316169372#13"/>
    <trip id="160" depart="20.32" from="319392765" to="232340608#4"/>
    <trip id="161" depart="20.45" from="1256465631" to="-1256470658"/>
    <trip id="162" depart="20.57" from="-28424798#1" to="-232197852#5"/>
    <trip id="163" depart="20.70" from="-193442325#11" to="-28413684#6"/>
    <trip id="164" depart="20.83" from="-26653920#0" to="-230599253"/>
    <trip id="165" depart="20.96" from="102413343#1" to="-28275779#14"/>
    <trip id="166" depart="21.08" from="-230599366#1" to="-301418944#2"/>
    <trip id="167" depart="21.21" from="28419947#5" to="193674346#1"/>
    <trip id="168" depart="21.34" from="43705736#3" to="-8285857#0"/>
    <trip id="169" depart="21.46" from="193614220#3" to="-313176051#4"/>
    <trip id="170" depart="21.59" from="1229651192#0" to="-824859293#1"/>
    <trip id="171" depart="21.72" from="267226861#0" to="747763040#4"/>
    <trip id="172" depart="21.84" from="1424988792" to="316170703#1"/>
    <trip id="173" depart="21.97" from="267226896#0" to="232295590#4"/>
    <trip id="174" depart="22.10" from="-193442325#0" to="-320524131#1"/>
    <trip id="175" depart="22.23" from="-28451181#5" to="28119664#25"/>
    <trip id="176" depart="22.35" from="-825808717#5" to="50336415#2"/>
    <trip id="177" depart="22.48" from="-232295587#1" to="295826414#4"/>
    <trip id="178" depart="22.61" from="-31136038#3" to="1136147462#0"/>
    <trip id="179" depart="22.73" from="-822197820#1" to="1202288394#0"/>
    <trip id="180" depart="22.86" from="44585043#0" to="1303247953#5"/>
    <trip id="181" depart="22.99" from="728048248" to="193674412#1"/>
    <trip id="182" depart="23.11" from="-360339251#5" to="-232340603#1"/>
    <trip id="183" depart="23.24" from="1303397256" to="229552436#6"/>
    <trip id="184" depart="23.37" from="728936306#4" to="1388019003#2"/>
    <trip id="185" depart="23.50" from="-232295588#2" to="230599349#6"/>
    <trip id="186" depart="23.62" from="28420826#0" to="28424587#2"/>
    <trip id="187" depart="23.75" from="229552437#4" to="267226893#0"/>
    <trip id="188" depart="23.88" from="229552437#4" to="-360330183#0"/>
    <trip id="189" depart="24.00" from="-28413642#2" to="319392767#10"/>
    <trip id="190" depart="24.13" from="314269345#1" to="-843814322#4"/>
    <trip id="191" depart="24.26" from="28439232#7" to="-316860957#1"/>
    <trip id="192" depart="24.39" from="315268373#5" to="-232295587#4"/>
    <trip id="193" depart="24.51" from="-319662798" to="-316859939#1"/>
    <trip id="194" depart="24.64" from="-28413643#1" to="31257291#2"/>
    <trip id="195" depart="24.77" from="360339276#1" to="234376524#1"/>
    <trip id="196" depart="24.89" from="-319658472#3" to="316169368#3"/>
    <trip id="197" depart="25.02" from="-295826415#1" to="-295839774#3"/>
    <trip id="198" depart="25.15" from="822185889#2" to="388965191#14"/>
    <trip id="199" depart="25.27" from="447792981#9" to="728048248"/>
    <trip id="200" depart="25.40" from="28413684#9" to="-233249039#5"/>
    <trip id="201" depart="25.53" from="28245959#0" to="314218051#10"/>
    <trip id="202" depart="25.66" from="230599371" to="-315268385"/>
    <trip id="203" depart="25.78" from="28119685#13" to="28419854#0"/>
    <trip id="204" depart="25.91" from="232340599#0" to="-28119664#30"/>
    <trip id="205" depart="26.04" from="-232290204" to="-193442329#0"/>
    <trip id="206" depart="26.16" from="289066843#0" to="319510015#2"/>
    <trip id="207" depart="26.29" from="28424606#4" to="-1100816191"/>
    <trip id="208" depart="26.42" from="-1059854120#1" to="358318312#2"/>
    <trip id="209" depart="26.54" from="-1303397258" to="319392767#2"/>
    <trip id="210" depart="26.67" from="-231431524#12" to="315268373#3"/>
    <trip id="211" depart="26.80" from="28121208#4" to="-231429522#5"/>
    <trip id="212" depart="26.93" from="315927368#1" to="-232295567#0"/>
    <trip id="213" depart="27.05" from="-85568169#1" to="-319392753#1"/>
    <trip id="214" depart="27.18" from="826123068#1" to="316355216#1"/>
    <trip id="215" depart="27.31" from="1042959309" to="193614222#4"/>
    <trip id="216" depart="27.43" from="313176046#1" to="360823213"/>
    <trip id="217" depart="27.56" from="-155751165#15" to="-230599349#3"/>
    <trip id="218" depart="27.69" from="360475671#5" to="232290594#0"/>
    <trip id="219" depart="27.81" from="728119351#0" to="-425537662#0"/>
    <trip id="220" depart="27.94" from="-314667210#18" to="229552436#4"/>
    <trip id="221" depart="28.07" from="28439278#1" to="536403701#3"/>
    <trip id="222" depart="28.20" from="-1100653235#1" to="-319659797#1"/>
    <trip id="223" depart="28.32" from="86258060#2" to="242786626#1"/>
    <trip id="224" depart="28.45" from="-1390429210" to="267226897"/>
    <trip id="225" depart="28.58" from="-28275828#1" to="-28451050#2"/>
    <trip id="226" depart="28.70" from="-28419989#2" to="-28420103#2"/>
    <trip id="227" depart="28.83" from="728048258#1" to="-231429517#6"/>
    <trip id="228" depart="28.96" from="-193442674#6" to="-319662791#3"/>
    <trip id="229" depart="29.08" from="193442670#2" to="-28119690#4"/>
    <trip id="230" depart="29.21" from="151441963#4" to="319510011#1"/>
    <trip id="231" depart="29.34" from="826165693#0" to="-267226877#7"/>
    <trip id="232" depart="29.47" from="-229549751#1" to="826123061"/>
    <trip id="233" depart="29.59" from="312868520#4" to="142759061#6"/>
    <trip id="234" depart="29.72" from="826123069#2" to="326154289#1"/>
    <trip id="235" depart="29.85" from="-316169368#0" to="360299057#1"/>
    <trip id="236" depart="29.97" from="1202288396#9" to="230599332"/>
    <trip id="237" depart="30.10" from="28424587#1" to="319659815#5"/>
    <trip id="238" depart="30.23" from="824859280#1" to="1229651192#3"/>
    <trip id="239" depart="30.35" from="43231115#7" to="383440537#1"/>
    <trip id="240" depart="30.48" from="313176051#0" to="-358037470"/>
    <trip id="241" depart="30.61" from="-822236218#0" to="-360299054#0"/>
    <trip id="242" depart="30.74" from="360823236#1" to="230599358#3"/>
    <trip id="243" depart="30.86" from="-299208600#2" to="316012366#1"/>
    <trip id="244" depart="30.99" from="132901844#0" to="-360298621#2"/>
    <trip id="245" depart="31.12" from="-728705563" to="230599328"/>
    <trip id="246" depart="31.24" from="-86260506#4" to="319658572#1"/>
    <trip id="247" depart="31.37" from="-361363848" to="309850377#0"/>
    <trip id="248" depart="31.50" from="-319662792#0" to="86222527#8"/>
    <trip id="249" depart="31.62" from="-360339252#7" to="257431338#9"/>
    <trip id="250" depart="31.75" from="43705659#2" to="28121208#0"/>
    <trip id="251" depart="31.88" from="319060205#6" to="-1059854135#1"/>
    <trip id="252" depart="32.01" from="28245970#4" to="267226892#0"/>
    <trip id="253" depart="32.13" from="-28413668#7" to="28121214#42"/>
    <trip id="254" depart="32.26" from="-319659803#1" to="301611298#1"/>
    <trip id="255" depart="32.39" from="319663201#0" to="28121252#16"/>
    <trip id="256" depart="32.51" from="316003530#6" to="-313176066#0"/>
    <trip id="257" depart="32.64" from="-31257291#5" to="-28121208#19"/>
    <trip id="258" depart="32.77" from="-232295572#1" to="86260506#5"/>
    <trip id="259" depart="32.89" from="312018294#2" to="-826123424"/>
    <trip id="260" depart="33.02" from="360314563#3" to="319658472#2"/>
    <trip id="261" depart="33.15" from="-360323421" to="-267226893#2"/>
    <trip id="262" depart="33.28" from="-28413689#2" to="1298275427#1"/>
    <trip id="263" depart="33.40" from="-231429516#0" to="319091451#0"/>
    <trip id="264" depart="33.53" from="-28424609#1" to="-267226848#2"/>
    <trip id="265" depart="33.66" from="26654369#3" to="360296409#1"/>
    <trip id="266" depart="33.78" from="-28121247#13" to="-319510011#0"/>
    <trip id="267" depart="33.91" from="1188918411#4" to="324888744#2"/>
    <trip id="268" depart="34.04" from="822382283#1" to="316860934"/>
    <trip id="269" depart="34.16" from="-311851900#4" to="-276196059#0"/>
    <trip id="270" depart="34.29" from="-193614222#7" to="28275806#15"/>
    <trip id="271" depart="34.42" from="-1256559791" to="232295576#1"/>
    <trip id="272" depart="34.55" from="320524132#2" to="-360320064"/>
    <trip id="273" depart="34.67" from="-28246020#3" to="320649150#1"/>
    <trip id="274" depart="34.80" from="28419825#8" to="232197847#1"/>
    <trip id="275" depart="34.93" from="-319392767#11" to="822239686#0"/>
    <trip id="276" depart="35.05" from="-229492754#0" to="231431524#6"/>
    <trip id="277" depart="35.18" from="28485670#1" to="319662537"/>
    <trip id="278" depart="35.31" from="257431291#1" to="-448642760#1"/>
    <trip id="279" depart="35.43" from="-326154545#3" to="193673088#0"/>
    <trip id="280" depart="35.56" from="-267226918#5" to="232197847#2"/>
    <trip id="281" depart="35.69" from="-312868518#2" to="299481961#1"/>
    <trip id="282" depart="35.82" from="-1265051481#1" to="-234376524#5"/>
    <trip id="283" depart="35.94" from="396121253#4" to="28413646#12"/>
    <trip id="284" depart="36.07" from="257431320#3" to="388965191#17"/>
    <trip id="285" depart="36.20" from="85568170#6" to="-44074681#10"/>
    <trip id="286" depart="36.32" from="232290824#0" to="-326134772#0"/>
    <trip id="287" depart="36.45" from="326134793#1" to="28275807#0"/>
    <trip id="288" depart="36.58" from="-44074639#5" to="267226884#11"/>
    <trip id="289" depart="36.70" from="1369109829#0" to="728948887"/>
    <trip id="290" depart="36.83" from="-267226900#1" to="-361363850#0"/>
    <trip id="291" depart="36.96" from="-28245925#8" to="230599335#0"/>
    <trip id="292" depart="37.09" from="232295570#2" to="315477291#3"/>
    <trip id="293" depart="37.21" from="28452286#2" to="193673782#1"/>
    <trip id="294" depart="37.34" from="28119685#7" to="-28413686#5"/>
    <trip id="295" depart="37.47" from="-193442325#0" to="1256564341"/>
    <trip id="296" depart="37.59" from="193442325#13" to="360314896#1"/>
    <trip id="297" depart="37.72" from="-321934590#3" to="-1303255997#2"/>
    <trip id="298" depart="37.85" from="-326154278#1" to="43230874#4"/>
    <trip id="299" depart="37.97" from="-193442324#4" to="231442867#0"/>
    <trip id="300" depart="38.10" from="319659821#0" to="28245985#4"/>
    <trip id="301" depart="38.23" from="-43231115#4" to="-358036179#1"/>
    <trip id="302" depart="38.36" from="-43705647#6" to="28275817#10"/>
    <trip id="303" depart="38.48" from="319091450#1" to="-142759061#0"/>
    <trip id="304" depart="38.61" from="232290202#3" to="319659801#2"/>
    <trip id="305" depart="38.74" from="-28439239#0" to="142759061#14"/>
    <trip id="306" depart="38.86" from="-360314931#0" to="-315993719#0"/>
    <trip id="307" depart="38.99" from="43706093#7" to="28121247#0"/>
    <trip id="308" depart="39.12" from="1303236789" to="43230874#0"/>
    <trip id="309" depart="39.24" from="-326114059#1" to="-824764744#1"/>
    <trip id="310" depart="39.37" from="-301611290" to="-230594199#1"/>
    <trip id="311" depart="39.50" from="-230599258#4" to="-315268380#1"/>
    <trip id="312" depart="39.63" from="-319536953#0" to="-822382283#1"/>
    <trip id="313" depart="39.75" from="314269338#6" to="28451061#5"/>
    <trip id="314" depart="39.88" from="-155751165#10" to="1303247953#0"/>
    <trip id="315" depart="40.01" from="-319659802#4" to="843859633#1"/>
    <trip id="316" depart="40.13" from="-28451061#8" to="361378179#1"/>
    <trip id="317" depart="40.26" from="28419852#9" to="-28420855#2"/>
    <trip id="318" depart="40.39" from="28121208#29" to="-232295566"/>
    <trip id="319" depart="40.51" from="-320640073#1" to="-28245975#8"/>
    <trip id="320" depart="40.64" from="319510007#1" to="-267226869"/>
    <trip id="321" depart="40.77" from="230594198#1" to="1296323469#0"/>
    <trip id="322" depart="40.90" from="319392763#3" to="-32727500#0"/>
    <trip id="323" depart="41.02" from="-317375250#1" to="-316169372#6"/>
    <trip id="324" depart="41.15" from="-319662536" to="826361135#1"/>
    <trip id="325" depart="41.28" from="-316012366#0" to="-230599268#0"/>
    <trip id="326" depart="41.40" from="-232290820#2" to="-230599274"/>
    <trip id="327" depart="41.53" from="-1256463232#0" to="-193442676#3"/>
    <trip id="328" depart="41.66" from="319392762#2" to="316747149#1"/>
    <trip id="329" depart="41.78" from="-229552436#6" to="-289066843#3"/>
    <trip id="330" depart="41.91" from="-276196056#2" to="28121208#8"/>
    <trip id="331" depart="42.04" from="231429522#7" to="1107091878"/>
    <trip id="332" depart="42.17" from="-1254796527" to="231431523#6"/>
    <trip id="333" depart="42.29" from="319060205#0" to="231431523#9"/>
    <trip id="334" depart="42.42" from="-232337268#13" to="-28275779#9"/>
    <trip id="335" depart="42.55" from="-231431537#2" to="-358302721#0"/>
    <trip id="336" depart="42.67" from="358302725#1" to="-267226892#1"/>
    <trip id="337" depart="42.80" from="360823229#1" to="-825808717#5"/>
    <trip id="338" depart="42.93" from="-316622215#5" to="316621350#1"/>
    <trip id="339" depart="43.05" from="-315993720" to="168753566"/>
    <trip id="340" depart="43.18" from="-825722352" to="326154263"/>
    <trip id="341" depart="43.31" from="-383291585#2" to="-229548701#1"/>
    <trip id="342" depart="43.44" from="-267226874#2" to="-319662785#3"/>
    <trip id="343" depart="43.56" from="232556558#0" to="-28420021#0"/>
    <trip id="344" depart="43.69" from="-28420852#8" to="826118154#0"/>
    <trip id="345" depart="43.82" from="-358010825#1" to="28121208#29"/>
    <trip id="346" depart="43.94" from="1202693695#1" to="28413666#3"/>
    <trip id="347" depart="44.07" from="-230594215#2" to="-360301045#3"/>
    <trip id="348" depart="44.20" from="-242786631" to="-232295588#0"/>
    <trip id="349" depart="44.32" from="-824818917#0" to="396121253#2"/>
    <trip id="350" depart="44.45" from="-193614218#2" to="-468647368"/>
    <trip id="351" depart="44.58" from="-326154538" to="317752769#4"/>
    <trip id="352" depart="44.71" from="155750883#0" to="50335622#0"/>
    <trip id="353" depart="44.83" from="-193442317#2" to="320524132#2"/>
    <trip id="354" depart="44.96" from="229552429" to="232290202#6"/>
    <trip id="355" depart="45.09" from="-231429517#0" to="-31136031#4"/>
    <trip id="356" depart="45.21" from="28246020#3" to="-319392760#2"/>
    <trip id="357" depart="45.34" from="316325904#0" to="319659815#7"/>
    <trip id="358" depart="45.47" from="-55451748#2" to="267226850#4"/>
    <trip id="359" depart="45.59" from="-360314932#2" to="242786618#7"/>
    <trip id="360" depart="45.72" from="-183314623" to="-28121214#15"/>
    <trip id="361" depart="45.85" from="-232290202#10" to="-28121247#17"/>
    <trip id="362" depart="45.98" from="822403020#0" to="-232295576#0"/>
    <trip id="363" depart="46.10" from="-728422519#2" to="229552437#2"/>
    <trip id="364" depart="46.23" from="-190013374#5" to="1202693695#0"/>
    <trip id="365" depart="46.36" from="232295591#1" to="-28439197#13"/>
    <trip id="366" depart="46.48" from="-233249039#10" to="315268380#1"/>
    <trip id="367" depart="46.61" from="313176063#1" to="315427805"/>
    <trip id="368" depart="46.74" from="727779330#1" to="193614220#3"/>
    <trip id="369" depart="46.86" from="168753566" to="28121214#26"/>
    <trip id="370" depart="46.99" from="360833415#1" to="190013374#6"/>
    <trip id="371" depart="47.12" from="44074681#0" to="314269345#0"/>
    <trip id="372" depart="47.25" from="-28420852#1" to="28245990#6"/>
    <trip id="373" depart="47.37" from="299481961#0" to="28451253#1"/>
    <trip id="374" depart="47.50" from="86222532#5" to="28121206#3"/>
    <trip id="375" depart="47.63" from="358229379#1" to="826123049"/>
    <trip id="376" depart="47.75" from="-360833415#1" to="-311851899#1"/>
    <trip id="377" depart="47.88" from="313176052" to="319392747#6"/>
    <trip id="378" depart="48.01" from="-826361122#1" to="-28485621#0"/>
    <trip id="379" depart="48.14" from="-299208598" to="360823222#0"/>
    <trip id="380" depart="48.26" from="-233249039#10" to="257431320#2"/>
    <trip id="381" depart="48.39" from="193614220#13" to="-826118153"/>
    <trip id="382" depart="48.52" from="267226874#0" to="-267226859#2"/>
    <trip id="383" depart="48.64" from="360330176#0" to="28451169#0"/>
    <trip id="384" depart="48.77" from="-26654369#2" to="826165692"/>
    <trip id="385" depart="48.90" from="-28420855#2" to="319658465"/>
    <trip id="386" depart="49.02" from="-169679916" to="361378179#1"/>
    <trip id="387" depart="49.15" from="1203052019" to="230599349#3"/>
    <trip id="388" depart="49.28" from="193614220#9" to="319658456#1"/>
    <trip id="389" depart="49.41" from="316169624#1" to="26654369#2"/>
    <trip id="390" depart="49.53" from="826141866#0" to="-230599349#5"/>
    <trip id="391" depart="49.66" from="360289195#0" to="-1298275430#0"/>
    <trip id="392" depart="49.79" from="360296413#2" to="232290198#0"/>
    <trip id="393" depart="49.91" from="-193442670#8" to="267226910#0"/>
    <trip id="394" depart="50.04" from="-317375251#3" to="26654372#22"/>
    <trip id="395" depart="50.17" from="-312017990#0" to="326154259#4"/>
    <trip id="396" depart="50.29" from="-360829796#0" to="-232197849#4"/>
    <trip id="397" depart="50.42" from="360314930#0" to="-28413642#0"/>
    <trip id="398" depart="50.55" from="316169362" to="-229552428"/>
    <trip id="399" depart="50.68" from="316621879#16" to="-360301032#0"/>
    <trip id="400" depart="50.80" from="28245882#2" to="43706093#9"/>
    <trip id="401" depart="50.93" from="1202288397" to="-193442326#1"/>
    <trip id="402" depart="51.06" from="-28419864#0" to="-28245970#6"/>
    <trip id="403" depart="51.18" from="319662786" to="-193614220#9"/>
    <trip id="404" depart="51.31" from="-313176063#7" to="-1189374440#4"/>