<?xml version="1.0" encoding="UTF-8"?>

<!-- generated on 2025-11-10 01:59:36.276236 by randomTrips.py v1_24_0+0000-b72eb3fabc8
<configuration>
    <net-file value="osm.net.xml.gz"/>
    <output-trip-file value="osm.passenger.trips.xml"/>
    <route-file value="osm.passenger.rou.xml"/>
    <prefix value="veh"/>
    <trip-attributes value="departLane=&quot;best&quot;"/>
    <fringe-start-attributes value="departSpeed=&quot;max&quot;"/>
    <vehicle-class value="passenger"/>
    <lanes value="True"/>
    <fringe-factor value="5"/>
    <allow-fringe.min-length value="1000.0"/>
    <edge-permission value="passenger"/>
    <via-edge-types value="highway.motorway,highway.motorway_link,highway.trunk_link,highway.primary_link,highway.secondary_link,highway.tertiary_link"/>
    <min-distance value="300.0"/>
    <min-distance.fringe value="10.0"/>
    <remove-loops value="True"/>
    <insertion-density value="7.0"/>
</configuration>
-->

<!-- generated on 2025-11-10 01:59:11 by Eclipse SUMO duarouter Version 1.24.0
<duarouterConfiguration xmlns:xsi="http://www.w3.org/2001/XMLSchema-instance" xsi:noNamespaceSchemaLocation="http://sumo.dlr.de/xsd/duarouterConfiguration.xsd">

    <input>
        <net-file value="osm.net.xml.gz"/>
        <route-files value="osm.passenger.trips.xml"/>
    </input>

    <output>
        <output-file value="osm.passenger.rou.xml"/>
        <alternatives-output value="NUL"/>
    </output>

    <processing>
        <remove-loops value="true"/>
    </processing>

    <time>
        <begin value="0.0"/>
        <end value="3600.0"/>
    </time>

    <report>
        <no-warnings value="true"/>
        <ignore-errors value="true"/>
        <no-step-log value="true"/>
    </report>

</duarouterConfiguration>
-->

<routes xmlns:xsi="http://www.w3.org/2001/XMLSchema-instance" xsi:noNamespaceSchemaLocation="http://sumo.dlr.de/xsd/routes_file.xsd">
    <vType id="veh_passenger" vClass="passenger"/>
    <vehicle id="veh0" type="veh_passenger" depart="0.00" departLane="best">
        <route edges="28121208#4 28121208#5 28121208#6 28121208#8 28121208#9 28121208#11 26654372#5 26654372#6 26654372#7 26654372#9 26654372#10 26654372#12 26654372#13 26654372#14 26654372#15 26654372#16 26654372#18 26654372#19 26654372#20 26654372#21 26654372#22 26654372#23 26654372#24 -229486918#10 -229486918#9 -229486918#8 -229486918#7 -229486918#6 -50218330#3 -50218330#2 -50218330#1 -50218330#0 -31136031#5 -31136031#4 -31136031#2 -31136031#1 -31136031#0 318356805#5 318356805#6 318356805#7 318356805#1 824133530#0 824133530#1 824133530#2 824133530#3 844274540 318356807 -193672401#9 -193672401#8 -193672401#7 -193672401#6 -193672401#5 -1287576885#12 -1287576885#11 -1287576885#10 -1287576885#9 -1287576885#8 -1287576885#7 -1287576885#6 -1287576885#4 -1287576885#3"/>
    </vehicle>
    <vehicle id="veh1" type="veh_passenger" depart="0.75" departLane="best">
        <route edges="-316859920#2 -824859285 316859941#5 824859280#0 824859280#1 824859280#2 317752768 316471270#6 316471270#7 316471270#1 316471270#2 316471267 314667211#0 314667211#1 314667211#2 314667211#3 314667211#4 314667211#5 314667211#6 314218050#0 314218050#1-AddedOnRampEdge 314218050#1 536403699#0 536403699#1 536403699#2 536403699#3 536403699#4 536403699#5 536403699#6 -1311581304#2 -1311581304#1 -314667210#20 361363842#0 824818919 -361363849#1 -310211445#1 -310211445#0"/>
    </vehicle>
    <vehicle id="veh2" type="veh_passenger" depart="1.51" departLane="best">
        <route edges="-313176063#0 -313176065#0 -85578082#0 316755621#5 316755621#1 316755621#2 316755621#3 229486918#0 229486918#1 229486918#2 229486918#3 229486918#4 229486918#5 229486918#6 229486918#7 229486918#8 229486918#9 229486918#10 -358304917#4 -358304917#3 -358304917#2 -358304917#1 -358304917#0 727779330#1 321934113#3 28275808#0 28275808#2 28275808#3 234376530 234376519#0 234376519#1 234376519#3 728119351#0 728119351#1 728119351#2 728119350#1 728119350#2 234376524#0 234376524#1 234376524#2 234376524#3 234376524#4 234376524#5 234376524#6 234376524#7 234376524#8 -28119664#37 -28119664#36 -28119664#35 -230599263#6 28419852#2 28419852#3 28419852#4 28419852#5 28419852#6"/>
    </vehicle>
    <vehicle id="veh3" type="veh_passenger" depart="2.26" departLane="best" departSpeed="max">
        <route edges="361381980 -295826410#3 -295826410#2 -358053796#1 1303247953#2 1303247953#3 1303247953#5 1303247953#7 -824133530#3 -824133530#2 -824133530#1 -190013374#12 -190013374#11 -190013374#10 -190013374#9 -190013374#8 -190013374#7 -190013374#6 -190013374#5 -190013374#4 -190013374#3 -190013374#2 -190013374#1 396126123#3 396126123#4 396126123#5 396126123#6 396126123#7 396126123#8 24563856#1 24563856#2 313176046#0 -843963068#0 -24563843#6 -24563843#5 -24563843#4 -24563843#3 -24563843#2 -24563843#1 -24563843#0 316355218#1 312017990#0 312017990#1 312017990#2 28275807#0 28275807#1 28275807#2 28275807#3 234376524#0 234376524#1 234376524#2 234376524#3 234376524#4 234376524#5 234376524#6 234376524#7 234376524#8 -28119664#37 -28119664#36 -28119664#35 -28119664#34 -28119664#33 -28119664#32 -28119664#31 -28119664#29 28419908#0 28419908#1 -230599349#2 -230599349#1"/>
    </vehicle>
    <vehicle id="veh4" type="veh_passenger" depart="3.01" departLane="best">
        <route edges="-824731617#1 28275780 85564975#2 85564975#3 316353905#8 316353905#9-AddedOnRampEdge 316353905#9 319512093#6 319512093#0 319512093#1 319512077 182993847#0 182993847#1-AddedOnRampEdge 182993847#1 182993847#2 182993847#2-AddedOffRampEdge 182993847#3 26652690#7 26652690#0 26652690#1 22837906#0 22837906#1-AddedOnRampEdge 22837906#1 22837906#2 22837906#3 22837906#4 22837906#6 22837906#8 1377979284#1 1377979284#2 1377979284#3 728048252#0 728048252#1 8285868#4 8285868#5 8285868#6 728048250#0 728048250#1 728048250#2 728048250#3 728048249#0 728048249#1 319091449#6 319091449#7 319091449#1 8285861#0 8285861#1 8285861#2 8285861#3 8285861#4 425537662#0 425537662#1 425537662#2 425537662#3 425537662#4 326154259#0 -326154293#1 326154299#0 -1303397256 -1303397255#0"/>
    </vehicle>
    <vehicle id="veh5" type="veh_passenger" depart="3.76" departLane="best">
        <route edges="-28451050#4 -28451050#3 311851894#2 193440376#0 193440376#1 358989529#8 358989529#9 358989529#10 358989529#11 193440378 8285900#0 8285900#1 26610044#6 26610044#7 26610044#0 26610044#1 26610044#2 729016166#0 729016166#2 729016166#3 729016166#4 729016166#5 319511468#1 319511468#2 1158444318#0 1158444319 316353905#9-AddedOnRampEdge 316353905#9 319512093#6 319512093#0 319512093#1 319512093#2 319512093#3 319512093#4 85564975#0 824731617#0 824731617#1 824731617#2 824731617#3 1356405027#1 1356405027#2 1356405027#3 1356405027#4"/>
    </vehicle>
    <vehicle id="veh6" type="veh_passenger" depart="4.52" departLane="best" departSpeed="max">
        <route edges="-1256466804 -326134769#2 -326134769#1 -326134769#0 -86258060#3 -86258060#2 -86258060#1 -86258060#0 1368372594#0 1368372594#1 1368372594#2 1368372594#3 1368372594#4 1368372594#5 1368372594#6 1368372594#7 1368372594#8 1368372594#9 1368372594#10 844268677#0 257431336#1 193672401#1 193672401#2 193672401#3 193672401#4 193672401#5 193672401#6 193672401#7 193672401#8 193672401#9 318356806#0 1303247953#7 -824133530#3 -824133530#2 -824133530#1 -824133530#0 318356805#2 318356805#3 318356805#4 31136031#0 31136031#1 31136031#2 31136031#4 31136031#5 50218330#0 50218330#1 50218330#2 50218330#3 229486918#6 229486918#7 229486918#8 229486918#9 229486918#10 358302717#0 358302717#1 358302717#2 358302717#3 358302717#5 358302717#6 358302717#7 358302717#8 316747151#2 316747151#3 316747151#4 316747150#0 316747150#1 316747150#2 316747150#3 316747150#4 316747150#5 316747150#6 316747150#7 26610044#0 316324619#0 316324619#1 316324619#2 316324619#2-AddedOffRampEdge 316324619#3 26610092#3 26610092#4 26610092#5 1369034658 26652690#1 26652690#2 26652690#3 26652690#4 26652690#5 728048246#0 728048246#1-AddedOnRampEdge 728048246#1 728048246#2 -367410392#1 -367410392#0 -1155941261#0 28424753#0 28424753#1 28424753#2 28424753#3 28424753#4 28424753#5 28424753#6 28424753#7 -28424798#0"/>
    </vehicle>
    <vehicle id="veh7" type="veh_passenger" depart="5.27" departLane="best">
        <route edges="28245900#4 28245900#5 360829789 -28121252#20 26654372#14 26654372#15 26654372#16 26654372#18 26654372#19 26654372#20 26654372#21 26654372#22 26654372#23 26654372#24 -229486918#10 -229486918#9 -229486918#8 -229486918#7 -229486918#6 204014460#0"/>
    </vehicle>
    <vehicle id="veh8" type="veh_passenger" depart="6.02" departLane="best">
        <route edges="-28451169#9 -28451169#8 -28451169#7 -28451169#6 -28451169#4 -28451169#3 155750883#2 155750883#3 155750883#4 155750883#5 155750883#6 8285892#0 8285892#1 26610092#5 26610092#6 26610092#0 26610092#1 26610012#0 26610012#1 26610012#2 26610044#2 729016166#0 729016166#2 729016166#3 729016166#4 729016166#5 319511468#1 319511468#2 1158444318#0 1158444318#1 314269352#0 314269352#1 314269352#2 314269352#3 314269352#4 314269352#5 314269352#6 314269352#7 314269352#8 314269352#9 314269352#10 314269352#11 314269352#12 314269352#13 1201217748#0 1201217748#1 1201217748#2 1201217748#3 1201217748#4 1201217748#5 316353906#5 316353906#6 316524162#0 316524162#1 316524162#2 316524162#3 316524162#4 316524162#5 316524162#6 316524162#8 -28422560#2 -28422560#1 1312234891#3 1312234891#4 1312234890#2 1312234890#3 28422536#0 28422536#2 28422536#3 28422536#4 28422536#5 28422536#6 28422536#7 28422536#8 28422536#9 316622215#6 518467877#1 518467876#1 518467876#2 518467876#3 518467876#4 518467876#5 518467876#7 518467876#8 518467876#9 518467876#10 324888739 324888738#1 324888738#2 324888738#3 324888738#4 324888738#5 324888738#6 324888738#7 -229492755#1 -229492755#0 86222532#7 232290202#9 232290202#10"/>
    </vehicle>
    <vehicle id="veh9" type="veh_passenger" depart="6.77" departLane="best">
        <route edges="319658472#3 -1203020774#5 -1203020774#4 -1203020774#3 -1203020774#2 -1203020774#1 -1203020774#0 -28195462#1 -28195462#0 1387158585#6 1387158585#7 1387158585#8 1387158585#9 1387158585#10 1387158585#11 1387158585#12 1387158585#13 1387158585#14 1387158585#15 316755621#2 316755621#3 229486918#0 229486918#1 229486918#2 229486918#3 229486918#4 229486918#5 -50218330#3 -50218330#2 -50218330#1 -50218330#0 -31136031#5 -31136031#4 -31136031#2 -31136031#1 -31136031#0 318356805#5 318356805#6 318356805#7 229549751#0 229549751#1 -193614217#8 -193614217#7 -190013374#8 -190013374#7"/>
    </vehicle>
    <vehicle id="veh10" type="veh_passenger" depart="7.53" departLane="best">
        <route edges="319536953#5 -319536961#0 -50335591#2 -50335591#1 -50335591#0 728048259#1 728048259#2 728048259#3 728048259#4 728048259#5 28121214#0 28121214#1 28121214#2 28121214#3 28121214#4 -425537662#6 -425537662#4 -425537662#3 -425537662#2 -425537662#1 -425537662#0 -155751165#19 -155751165#18 -155751165#17 -155751165#16 -155751165#15 -155751165#14 -155751165#12 -155751165#11 -155751165#10 -155751165#9 -155751165#7 -155751165#6 -155751165#5 -155751165#4 -155751165#3 -155751165#2 -155751165#1 155750883#0 155750883#1 155750883#2 155750883#3 155750883#4 155750883#5 155750883#6 8285892#0 8285892#1 26610092#5 26610092#6 26610092#0 26610092#1 26610012#0 26610012#1 26610012#2 26610044#2 26610044#3 26610044#4 26610044#5 26610044#6 316747154#0 316747154#1 316747154#2 316747154#3 316747154#4 316747154#5 316747152#1 316747152#2 316747152#3 728422519#0 728422519#1 728422519#2 28451050#7"/>
    </vehicle>
    <vehicle id="veh11" type="veh_passenger" depart="8.28" departLane="best">
        <route edges="-331012883#3 826132287#3 826132287#4 151441963#2 151441963#3 151441963#4 191034692#7 191034692#1 191034692#2 191034692#3 191034692#4 -425537664 -425537662#7 -425537662#6 -425537662#4 -425537662#3 -425537662#2 -425537662#1 -425537662#0 -155751165#19 -155751165#18 -155751165#17 26654372#0 26654372#1 26654372#2 26654372#3 26654372#4 26654372#5 26654372#6 26654372#7 26654372#9 26654372#10 26654372#12 26654372#13 26654372#14 26654372#15 26654372#16 -267226914#1 -267226914#0 -28245882#7 -28245882#6"/>
    </vehicle>
    <vehicle id="veh12" type="veh_passenger" depart="9.03" departLane="best">
        <route edges="824764742#1 -231431523#10 -231431523#9 -231431523#8 -231431523#7 -231431523#6 -231431523#5 -231431523#4 -231431523#3 -231431523#2 -231431523#1 -231431523#0 193672401#2 193672401#3 193672401#4 193672401#5 295826415#0 295826415#1 295826411#0 295826411#1 295826411#2 295826409#0 295826409#1 1303247953#2 360294180#0"/>
    </vehicle>
    <vehicle id="veh13" type="veh_passenger" depart="9.78" departLane="best">
        <route edges="-230599258#1 1046715712 28419947#3 28419931#4 28419931#5 314269352#8 314269352#9 314269352#10 314269352#11 314269352#12 314269352#13 1201217748#0 1201217748#1 1201217748#2 1201217748#3 1201217748#4 1201217748#5 316353906#5 316353906#6 316353906#7 316353906#8 316353906#1 315477291#0 315477291#1 315477291#2 315477291#3 315477291#4 1303239186 396121255#8 396121468#0 396121468#1 396121468#1-AddedOffRampEdge 396121468#2 396121468#3 396121468#4 396121470-AddedOnRampEdge 396121470 396121469#1 396121469#3 190013374#1 190013374#2 190013374#3 190013374#4 190013374#5 190013374#6 190013374#7 190013374#8 -193614217#6 -193614217#5 -193614217#4 -193614217#2 -193614217#1 -193614217#0 -193674412#9 -193674412#8 -193674412#7 -193674412#6 -193674412#5 -193674412#3 -193674412#2 -193674412#0 396126127 396126318#3 396126318#4 396126318#5 396126318#6 396126318#1 609934196#0 609934196#1 -193614222#11 -193614222#10 -193614222#9 -193614222#8 -193614222#7 -193614222#6 -193614222#5 -193614222#4 -193614222#3 -193614222#2 -193614222#1 -193614222#0 231431525#0 231431525#1 231431525#2 231431525#3 231431525#4 824764748#2 -824764736 -231431523#8"/>
    </vehicle>
    <vehicle id="veh14" type="veh_passenger" depart="10.54" departLane="best">
        <route edges="358229379#4 826345305 -313176060#0 -313176054 -258252907#2 -258252907#1 -258252907#0 -313176063#1 -313176063#0 -313176065#0 -85578082#0 316755621#5 316755621#1 316755621#2 316755621#3 229486918#0 229486918#1 229486918#2 229486918#3 229486918#4 229486918#5 229486918#6 229486918#7 229486918#8 229486918#9 229486918#10 -358304917#4 -358304917#3 -358304917#2 -358304917#1 -358304917#0 727779330#1 321934113#3 28275808#0 28275808#2 28275808#3 234376530 234376519#0 234376519#1 234376519#3 728119351#0 728119351#1 728119351#2 728119350#1 728119350#2 234376524#0 234376524#1 234376524#2"/>
    </vehicle>
    <vehicle id="veh15" type="veh_passenger" depart="11.29" departLane="best">
        <route edges="319658453#1 -1203020774#5 -1203020774#4 -1203020774#3 -1203020774#2 -1203020774#1 -1203020774#0 -28195462#1 -28195462#0 1387158585#6 1387158585#7 -312868521#8 -312868521#7 -312868521#6 -312868521#5"/>
    </vehicle>
    <vehicle id="veh16" type="veh_passenger" depart="12.04" departLane="best">
        <route edges="396126120#7 396126120#8 396126318#6 396126318#1 609934196#0 193674412#0 193674412#2 193674412#3 193674412#5 193674412#6 193674412#7 193674412#8 193674412#9 193614217#0 193614217#1 193614217#2 193614217#4 193614217#5 193614217#6 193614217#7 193614217#8 -229549751#1 -229549751#0 318356805#1 318356805#2 318356805#3 318356805#4 31136031#0 31136031#1 31136031#2 31136031#4 31136031#5 50218341#0 826361124"/>
    </vehicle>
    <vehicle id="veh17" type="veh_passenger" depart="12.79" departLane="best">
        <route edges="-360833422#3 -360833422#2 -360833422#1 -360833422#0 229486918#3 229486918#4 229486918#5 229486918#6 229486918#7 229486918#8 229486918#9 229486918#10 -358304917#4 -358304917#3 -358304917#2 -358304917#1 -358304917#0 727779330#1 727779330#3 727779330#4 727779330#5 727779330#6 727779330#7 396121252 396121255#6 396121255#7 396121255#8 396121468#0 396121468#1 396121468#1-AddedOffRampEdge 396121468#2 396121468#3 396121468#4 396121470-AddedOnRampEdge 396121470 396121469#1 843963069#1 843963069#2 -26654756 -843981531 536403701#0 1296323471 1075468270#2-AddedOnRampEdge 1075468270#2 1075468270#4 1075468271#2 1075468271#3 28119685#0 28119685#1 28119685#2 28119685#3 1254815766#1 229492763#5 229492763#7"/>
    </vehicle>
    <vehicle id="veh18" type="veh_passenger" depart="13.55" departLane="best">
        <route edges="324888746#1 -324888738#5 -324888738#4 -324888738#3 -324888738#2 -324888738#1 -324888738#0 -518467876#10 -518467876#9 -518467876#8 -518467876#7 388965191#0 388965191#1 388965191#2 388965191#3 388965191#4 388965191#5 388965191#6 388965191#8 388965191#9 388965191#10 388965191#11 388965191#12 388965191#13 388965191#14 388965191#15 388965191#16 388965191#17 1075468271#0 1075468269#0 1075468269#1 1075468269#1-AddedOffRampEdge 1075468269#3 843981533#2 843981531 26654756"/>
    </vehicle>
    <vehicle id="veh19" type="veh_passenger" depart="14.30" departLane="best">
        <route edges="360299042 26654227#2 26654227#4 26654369#3 26654369#4 26654372#0 26654372#1 26654372#2 26654372#3 26654372#4 26654372#5 26654372#6 26654372#7 26654372#9 26654372#10 26654372#12 26654372#13 26654372#14 26654372#15 26654372#16 26654372#18 26654372#19 26654372#20 26654372#21 26654372#22 26654372#23 26654372#24 -229486918#10 -229486918#9 -229486918#8 -229486918#7 -229486918#6 -50218330#3 -50218330#2 -50218330#1 -50218330#0 -31136031#5 -31136031#4 -31136031#2 -31136031#1 -31136031#0 318356805#5 318356805#6 318356805#7 318356805#1 824133530#0 824133530#1 824133530#2 824133530#3 844274540 318356807 -193672401#9 -193672401#8 -193672401#7 -193672401#6 -193672401#5 -193672401#4 -193672401#3 -193672401#2 231431523#0 231431523#1 231431523#2"/>
    </vehicle>
    <vehicle id="veh20" type="veh_passenger" depart="15.05" departLane="best">
        <route edges="28451276#2 28451276#3 28451276#4 8285892#0 8285892#1 26610092#5 26610092#6 26610092#0 26610092#1 26610012#0 26610012#1 26610012#2 26610044#2 729016166#0 729016166#2 729016166#3 729016166#4 729016166#5 319511468#1 319511468#2 1158444318#0 1158444318#1 -824731620#1 -824731620#0 -85568387#7 -85568387#5 -85568387#4 -85568387#3 -85568387#2 -85568387#0 26654018#2 26654018#3 26654018#4 85568170#0 85568170#1 85568170#2 85568170#3 85568170#4 85568170#5 85568170#6 85568170#7 85568170#8 316622213#5 316622213#6 316622213#7 1303240134#0 1303240134#1 -28422564#5 -28422564#4 -168753514"/>
    </vehicle>
    <vehicle id="veh21" type="veh_passenger" depart="15.80" departLane="best">
        <route edges="-295826414#1 -295826414#0 193672401#9 318356806#0 1303247953#7 -824133530#3 -824133530#2 -824133530#1 -824133530#0 318356805#2 318356805#3 318356805#4 31136031#0 31136031#1 31136031#2 31136031#4 31136031#5 50218330#0 50218330#1 50218330#2 50218330#3 229486918#6 -28121214#47 -28121214#46 -28121214#45 -28121214#44 -28121214#43 -28121214#42 -28121214#41 -28121214#40 -28121214#39 -28121214#38 -28121214#37 -28121214#36 -28121214#34 -28121214#33 -28121214#32 -28121214#31 -28121214#30 -28121214#29 -28121214#28 -28121214#27 -28121214#26 -28121214#25 -28121214#24 -28121214#23 -28121214#22 -28121214#21 -28121214#20 -28121214#19 -28121214#18 -28121214#17 -28121214#16 -28121214#15 -28121214#14 -28121214#13 -28121214#12 -28121214#11 -28121214#10 -28121214#9 -28121214#8 -28121214#7 -28121214#6 -28121214#5 -28121214#4 -28121214#3 -28121214#2 -28121214#1 -28121214#0 728048259#6 728048259#7 728048259#0 50335591#0 50335591#1 50335591#2 50335591#3 50336411#0 50336411#1 -50336415#3 -319536943#0"/>
    </vehicle>
    <vehicle id="veh22" type="veh_passenger" depart="16.56" departLane="best">
        <route edges="-229492756#12 -232197846#4 43706093#8 43706093#9 43706093#10 43706093#11 43706093#12 232295594 314218050#0 314218050#1-AddedOnRampEdge 314218050#1 729016167#0 729016167#1 843981532#0 843981532#1 843981533#0 843981533#2 843981531 312017991#1 312017991#2 316355218#5 316355218#1 312017990#0 312017990#1 312017990#2 315477291#3 315477291#4 1303239186 396121255#8 396121255#1 396121255#2 1314559755 396121254#0 396121254#2 28449958#1 28449958#2 28449958#3 134268950 358304917#0 358304917#1 358304917#2 358304917#3 358304917#4 -229486918#10 -229486918#9 -229486918#8 -229486918#7 -229486918#6 -229486918#5 -229486918#4 -229486918#3 -229486918#2 -229486918#1 -229486918#0 316755621#4 316755621#5 316755621#1 -1387158585#15 -1387158585#14 -1387158585#13 -1387158585#12 -1387158585#11 -1387158585#10 -1387158585#9 -1387158585#8 -312868521#8 -312868521#7 -312868521#6 -312868521#5 -312868521#4"/>
    </vehicle>
    <vehicle id="veh23" type="veh_passenger" depart="17.31" departLane="best">
        <route edges="28419908#6 28419908#7 -28420045#2 -28420045#1 -28420045#0 28275778#9 28275778#10 28275778#11 316353905#6 1158444320 1158444317#1 319511468#4 319511468#5 319511469#0 319511469#1 319511469#2 319511469#3 319511469#5 319511469#6 26610044#4 26610044#5 26610044#6 316747154#0 316747154#1 316747154#2 316747154#3 316747154#4 316747154#5 316747154#7 316747154#8 316747151#6 316747151#0 316747151#1 -358302717#8 28121227#0 28121227#1 28121227#2 28121227#3 28121227#4 28121227#6 28121227#7 28121227#8 28121227#9 28121227#10 28121227#11 28121227#12 28121227#13 28121227#14 -319392748"/>
    </vehicle>
    <vehicle id="veh24" type="veh_passenger" depart="18.06" departLane="best">
        <route edges="28119685#15 -518467876#5 -518467876#4 -518467876#3 -518467876#2 -518467876#1 727958501#0 -316622215#6 314269345#1 314269345#2 314269345#4 1312234890#5 1312234890#6 1312234889#0 1312234889#2 1312234889#3 1312234889#4 1312234889#5 316355217#6 316355217#7 316355217#1 316355217#2 316355216#0 316355216#1 316355216#2 316353906#1 315477291#0 315477291#1 315477291#2 315477291#3 315477291#4 1303239186 396121255#8 396121255#1 396121255#2 1314559755 396121254#0 396121254#2 28449958#1 28449958#2 28449958#3 134268950 358304917#0 358304917#1 358304917#2 358304917#3 358304917#4 -229486918#10 -229486918#9 -229486918#8 -229486918#7 -229486918#6 -229486918#5 -229486918#4 -360833424#1 -360833424#0 -360833427#0"/>
    </vehicle>
    <vehicle id="veh25" type="veh_passenger" depart="18.81" departLane="best">
        <route edges="-360339276#2 -319659797#3 -319659797#2 -360339275#1 -360339275#0 -319659791#2 -319659791#1 -319659791#0 826132292#3 826132292#4 826132292#5 826132287#1 826132287#2 826132287#3 826132287#4 151441963#2 151441963#3 151441963#4 191034692#7 191034692#1 191034692#2 191034692#3 191034692#4 -425537664 -425537662#7 -425537662#6 -425537662#4 -425537662#3 -425537662#2 -425537662#1 -425537662#0 -155751165#19 -155751165#18 -155751165#17 -155751165#16 -155751165#15 -155751165#14 -155751165#12 -155751165#11 -155751165#10 -155751165#9 -155751165#7 -155751165#6 -155751165#5 -155751165#4 -28485664#7 319091450#1 -360823225#2 -360823225#1 -360823225#0 -822233245 -28485668#0"/>
    </vehicle>
    <vehicle id="veh26" type="veh_passenger" depart="19.57" departLane="best">
        <route edges="-316169372#0 1368372594#7 1368372594#8 1368372594#9 1368372594#10 844268677#0 257431336#1 193672401#1 193672401#2 193672401#3 193672401#4 193672401#5 193672401#6 193672401#7 193672401#8 193672401#9 318356806#0 1303247953#7 -824133530#3 -824133530#2 -824133530#1 -824133530#0 318356805#2 318356805#3 318356805#4 318356805#5 318356805#6 -321934590#6 -321934590#5 -321934590#4 -321934590#3 -321934590#2 -321934590#1 -321934590#0 1254796526#0 1254796526#1 321934589#0 321934589#1 321934113#0 321934113#3 321934113#4 321934113#5 321934113#6 321934113#7 28451061#1 28451061#2 28451061#3 -728422520#2 728422518#0 728422518#1"/>
    </vehicle>
    <vehicle id="veh27" type="veh_passenger" depart="20.32" departLane="best">
        <route edges="28245882#16 -360299051#1 -360299051#0 26654372#7 26654372#9 26654372#10 26654372#12 26654372#13 26654372#14 26654372#15 26654372#16 26654372#18 26654372#19 26654372#20 26654372#21 26654372#22 26654372#23 26654372#24 -229486918#10 -229486918#9 -229486918#8 -229486918#7 -229486918#6 -50218330#3 -50218330#2 -50218330#1 -50218330#0 -31136031#5 -31136031#4 -31136031#2 -31136031#1 -31136031#0 318356805#5 318356805#6 318356805#7 318356805#1 824133530#0 824133530#1 824133530#2 824133530#3 844274540 1202288396#0 1202288396#2 1202288396#3 1202288396#4 1202288396#5 257431270#0 257431270#1"/>
    </vehicle>
    <vehicle id="veh28" type="veh_passenger" depart="21.07" departLane="best">
        <route edges="-28245900#5 326154279 28245985#5 -319392726#6 28245975#1 28245975#2 28245975#3 28245975#4 28245975#5 28245975#6 28245975#7 28245975#8 28245975#9 142759061#0 142759061#1 142759061#2 142759061#3 142759061#4 142759061#5 142759061#6 142759061#7 142759061#8 142759061#9 142759061#10 142759061#11 142759061#12 142759061#13 142759061#14 142759061#15 142759061#16 142759061#17 142759061#18 142759061#19 142759061#20 142759061#21 142759061#22 -1189305005#2 312868520#1"/>
    </vehicle>
    <vehicle id="veh29" type="veh_passenger" depart="21.82" departLane="best">
        <route edges="-28121214#40 -823441932#2 -823441932#1 319392763#7 -28245964#5 -28245964#4 26654372#24 -358304917#4 -358304917#3 -358304917#2 -358304917#1 -358304917#0 727779330#1 727779330#3 727779330#4 727779330#5 727779330#6 727779330#7 396121252 396121255#6 396121255#7 396121255#8 396121468#0 396121468#1 396121468#1-AddedOffRampEdge 396121468#2 396121468#3 396121468#4 396121470-AddedOnRampEdge 396121470 396121469#1 843963069#1 843963069#2 -26654756 -843981531 536403701#0 1296323471 1075468270#2-AddedOnRampEdge 1075468270#2 1075468270#4 1075468271#2 1075468271#3 28119685#0 28119685#1 28119685#2 28119685#3 28119685#4 28119685#5 28119685#6 43705746#1"/>
    </vehicle>
    <vehicle id="veh30" type="veh_passenger" depart="22.58" departLane="best">
        <route edges="85564976#1 85564976#3 85564976#4 85564976#5 85564976#6 85564976#7 85564976#8 728048259#5 28121214#0 28121214#1 28121214#2 28121214#3 28121214#4 28121214#5 28121214#6 28121214#7 28121214#8 28121214#9 28121214#10 28121214#11 28121214#12 28121214#13 28121214#14 28121214#15 28121214#16 28121214#17 28121214#18 28121214#19 28121214#20 28121214#21 28121214#22 28121214#23 28121214#24 28121214#25 28121214#26 28121214#27 28121214#28 28121214#29 28121214#30 28121214#31 28121214#32 28121214#33 28121214#34 28121214#36 28121214#37 28121214#38 28121214#39 28121214#40 28121214#41 28121214#42 28121214#43 28121214#44"/>
    </vehicle>
    <vehicle id="veh31" type="veh_passenger" depart="23.33" departLane="best">
        <route edges="229549750#0 193612723#5 -824133530#1 -824133530#0 318356805#2 318356805#3 318356805#4 31136031#0 31136031#1 31136031#2 31136031#4 31136031#5 50218330#0 50218330#1 50218330#2 50218330#3 229486918#6 229486918#7 229486918#8 229486918#9 229486918#10 358302717#0 358302717#1 358302717#2 358302717#3 358302717#5 358302717#6 358302717#7 358302717#8 316747151#2 316747151#3 316747151#4 316747150#0 316747150#1 316747150#2 316747150#3 316747150#4 316747150#5 316747150#6 316747150#7 26610044#0 26610044#1 26610044#2 729016166#0 729016166#2 729016166#3 729016166#4 729016166#5 319511468#1 319511468#2 1158444318#0 1158444319 316353905#9-AddedOnRampEdge 316353905#9 319512093#6 319512093#0 319512093#1 319512093#2 319512093#3 319512093#4 85564975#0 824731617#0 824731617#1 824731617#2 28420824"/>
    </vehicle>
    <vehicle id="veh32" type="veh_passenger" depart="24.08" departLane="best">
        <route edges="326154541#1 -326154546#3 -326154543#1 -326154543#0 28121206#3 28121206#4 28121206#5 28121206#6 28121214#18 28121214#19 28121214#20 28121214#21 28121214#22 28121214#23 28121214#24 28121214#25 28121214#26 28121214#27 28121214#28 28121214#29 28121214#30 28121214#31 -28121227#21 -28121227#20 -28121227#19 -28121227#18 -28121227#17 -28121227#16 -28121227#15 -28121227#14 -28121227#13 -28121227#12 -28121227#11 -28121227#10 -28121227#9 -28121227#8 -28121227#7 -28121227#6 -28121227#4 -28121227#3 -28121227#2 -28121227#1 -28121227#0 358302717#8 316747151#2 316747151#3 316747151#4 316747150#0 316747150#1 316747150#2 316747150#3 316747150#4 316747150#5 316747150#6 316747150#7 26610044#0 26610044#1 26610044#2 729016166#0 729016166#2 729016166#3 729016166#4 729016166#5 319511468#1 319511468#2 1158444318#0 1158444318#1 314269352#0 314269352#1 314269352#2 314269352#3 314269352#4 314269352#5 314269352#6 314269352#7 314269352#8 314269352#9 314269352#10 314269352#11 314269352#12 314269352#13 1201217748#0 1201217748#1 1201217748#2 1201217748#3 1201217748#4 1201217748#5 316353906#5 316353906#6 316524162#0 316524162#1 316524162#2 316524162#3 316524162#4 316524162#5 316524162#6 316524162#8 -28422560#2 -28422560#1 1312234891#3 1312234891#4 1312234890#2 1312234890#3 28422536#0 28422536#2 28422536#3 28422536#4 28422536#5 28422536#6 28422536#7 28422536#8 28422536#9 316622215#6 518467877#1 518467876#1 518467876#2 518467876#3 518467876#4 518467876#5 518467876#7 518467876#8 518467876#9 518467876#10 324888739 324888738#1 324888738#2 324888738#3 324888738#4 324888738#5 324888738#6 324888738#7 324888738#9 324888738#10 -316859941#5"/>
    </vehicle>
    <vehicle id="veh33" type="veh_passenger" depart="24.83" departLane="best">
        <route edges="-295839774#0 295839780#1 193614220#5 193614220#6 193614220#8 193614220#9 319060207#5 319060207#6 319060206#0 319060206#1 319060206#2 26654018#4 26654018#5 26654018#6 26654018#1 85568387#0 85568387#2 85568387#3 85568387#4 85568387#5 85568387#7 85568387#8 824731620#1 316353905#8 316353905#9-AddedOnRampEdge 316353905#9 319512093#6 319512093#0 319512093#1 319512077 182993847#0 182993847#1-AddedOnRampEdge 182993847#1 182993847#2 182993847#2-AddedOffRampEdge 182993847#3 26652690#7 26652690#0 26652690#1 26652690#2 26652690#3 26652690#4 26652690#5 728048246#0 728048246#1-AddedOnRampEdge 728048246#1 728048246#2 -367410392#1 -367410392#0 -1155941261#0 1155941262#0 1046715711 -316171204 -316171203#0 1314995813#0 -1314995814"/>
    </vehicle>
    <vehicle id="veh34" type="veh_passenger" depart="25.59" departLane="best">