<?xml version="1.0" encoding="UTF-8"?>

<!-- generated on 2025-11-09 14:01:05.650006 by randomTrips.py v1_24_0+0000-b72eb3fabc8
<configuration>
    <net-file value="osm.net.xml.gz"/>
    <output-trip-file value="osm.passenger.trips.xml"/>
    <route-file value="osm.passenger.rou.xml"/>
    <prefix value="veh"/>
    <trip-attributes value="departLane=&quot;best&quot;"/>
    <fringe-start-attributes value="departSpeed=&quot;max&quot;"/>
    <vehicle-class value="passenger"/>
    <lanes value="True"/>
    <fringe-factor value="5"/>
    <allow-fringe.min-length value="1000.0"/>
    <edge-permission value="passenger"/>
    <via-edge-types value="highway.motorway,highway.motorway_link,highway.trunk_link,highway.primary_link,highway.secondary_link,highway.tertiary_link"/>
    <min-distance value="300.0"/>
    <min-distance.fringe value="10.0"/>
    <remove-loops value="True"/>
    <insertion-density value="12.0"/>
</configuration>
-->

<routes xmlns:xsi="http://www.w3.org/2001/XMLSchema-instance" xsi:noNamespaceSchemaLocation="http://sumo.dlr.de/xsd/routes_file.xsd">
    <vType id="veh_passenger" vClass="passenger"/>
    <trip id="veh0" depart="0.00" from="28121214#12" to="-1265045751#1" departLane="best" type="veh_passenger"/>
    <trip id="veh1" depart="0.47" from="-316621879#14" to="-305502407#1" departLane="best" type="veh_passenger"/>
    <trip id="veh2" depart="0.95" from="313176055#0" to="28413672#0" departLane="best" type="veh_passenger"/>
    <trip id="veh3" depart="1.42" from="369583189#1" to="-230599328" departLane="best" type="veh_passenger"/>
    <trip id="veh4" depart="1.89" from="-824764748#4" to="-1303394718" departLane="best" type="veh_passenger"/>
    <trip id="veh5" depart="2.37" from="-28439197#12" to="1372618826" departLane="best" type="veh_passenger"/>
    <trip id="veh6" depart="2.84" from="-1256468390" to="-28420852#2" departLane="best" type="veh_passenger" departSpeed="max"/>
    <trip id="veh7" depart="3.32" from="28245900#13" to="204014459#0" departLane="best" type="veh_passenger"/>
    <trip id="veh8" depart="3.79" from="-28439232#5" to="232197847#5" departLane="best" type="veh_passenger"/>
    <trip id="veh9" depart="4.26" from="319658469#0" to="-1133370035#1" departLane="best" type="veh_passenger"/>
    <trip id="veh10" depart="4.74" from="319510014#0" to="28424587#7" departLane="best" type="veh_passenger"/>
    <trip id="veh11" depart="5.21" from="-358035182#1" to="-28121247#17" departLane="best" type="veh_passenger"/>
    <trip id="veh12" depart="5.68" from="824766244" to="-360296411#1" departLane="best" type="veh_passenger"/>
    <trip id="veh13" depart="6.16" from="-230594214#2" to="-231429520#6" departLane="best" type="veh_passenger" departSpeed="max"/>
    <trip id="veh14" depart="6.63" from="358302717#2" to="232340600" departLane="best" type="veh_passenger"/>
    <trip id="veh15" depart="7.11" from="319511469#3" to="311851901#2" departLane="best" type="veh_passenger"/>
    <trip id="veh16" depart="7.58" from="193442671#4" to="826361121#1" departLane="best" type="veh_passenger"/>
    <trip id="veh17" depart="8.05" from="-361363848" to="229492762#5" departLane="best" type="veh_passenger"/>
    <trip id="veh18" depart="8.53" from="326134777" to="26652692#2" departLane="best" type="veh_passenger"/>
    <trip id="veh19" depart="9.00" from="360299054#0" to="231429519#5" departLane="best" type="veh_passenger"/>
    <trip id="veh20" depart="9.47" from="28451276#4" to="-168753014" departLane="best" type="veh_passenger"/>
    <trip id="veh21" depart="9.95" from="-28485670#3" to="-319392767#9" departLane="best" type="veh_passenger"/>
    <trip id="veh22" depart="10.42" from="-229492755#1" to="-31257277#0" departLane="best" type="veh_passenger"/>
    <trip id="veh23" depart="10.90" from="-230599345#3" to="-319392730#0" departLane="best" type="veh_passenger"/>
    <trip id="veh24" depart="11.37" from="28119685#5" to="-361363847" departLane="best" type="veh_passenger"/>
    <trip id="veh25" depart="11.84" from="-360505304#1" to="-28451169#6" departLane="best" type="veh_passenger" departSpeed="max"/>
    <trip id="veh26" depart="12.32" from="-315993730" to="728705563" departLane="best" type="veh_passenger"/>
    <trip id="veh27" depart="12.79" from="28245882#13" to="234376533#2" departLane="best" type="veh_passenger"/>
    <trip id="veh28" depart="13.26" from="-28121252#17" to="311851899#8" departLane="best" type="veh_passenger"/>
    <trip id="veh29" depart="13.74" from="-28121208#6" to="-43706093#3" departLane="best" type="veh_passenger"/>
    <trip id="veh30" depart="14.21" from="85564976#5" to="28121208#17" departLane="best" type="veh_passenger"/>
    <trip id="veh31" depart="14.68" from="229552435#1" to="28419868#1" departLane="best" type="veh_passenger"/>
    <trip id="veh32" depart="15.16" from="331012883#2" to="316622214#4" departLane="best" type="veh_passenger"/>
    <trip id="veh33" depart="15.63" from="-289066604" to="-1314837228#0" departLane="best" type="veh_passenger"/>
    <trip id="veh34" depart="16.11" from="-319662785#3" to="-317375244#1" departLane="best" type="veh_passenger"/>
    <trip id="veh35" depart="16.58" from="-28420016#3" to="822205849#2" departLane="best" type="veh_passenger"/>
    <trip id="veh36" depart="17.05" from="360339277#5" to="-326151104#4" departLane="best" type="veh_passenger"/>
    <trip id="veh37" depart="17.53" from="28245970#2" to="-822247616#0" departLane="best" type="veh_passenger"/>
    <trip id="veh38" depart="18.00" from="44074639#3" to="1190308457" departLane="best" type="veh_passenger"/>
    <trip id="veh39" depart="18.47" from="-315993717#3" to="-315427805" departLane="best" type="veh_passenger"/>
    <trip id="veh40" depart="18.95" from="230594205" to="-316747674" departLane="best" type="veh_passenger"/>
    <trip id="veh41" depart="19.42" from="231431526#9" to="383440535#8" departLane="best" type="veh_passenger"/>
    <trip id="veh42" depart="19.90" from="-50218330#0" to="-301418944#1" departLane="best" type="veh_passenger"/>
    <trip id="veh43" depart="20.37" from="86260506#8" to="1387160568#0" departLane="best" type="veh_passenger"/>
    <trip id="veh44" depart="20.84" from="-230594200#5" to="-169679808#4" departLane="best" type="veh_passenger"/>
    <trip id="veh45" depart="21.32" from="-231431522#2" to="267226892#1" departLane="best" type="veh_passenger"/>
    <trip id="veh46" depart="21.79" from="319392726#8" to="-826361122#0" departLane="best" type="veh_passenger"/>
    <trip id="veh47" depart="22.26" from="-193442317#13" to="-447792774#1" departLane="best" type="veh_passenger"/>
    <trip id="veh48" depart="22.74" from="86260481#4" to="193442317#1" departLane="best" type="veh_passenger"/>
    <trip id="veh49" depart="23.21" from="826361113#0" to="360296409#1" departLane="best" type="veh_passenger"/>
    <trip id="veh50" depart="23.69" from="-1189805550" to="302534426#2" departLane="best" type="veh_passenger" departSpeed="max"/>
    <trip id="veh51" depart="24.16" from="28419858#1" to="193442675#1" departLane="best" type="veh_passenger"/>
    <trip id="veh52" depart="24.63" from="-315993729#0" to="28121208#32" departLane="best" type="veh_passenger"/>
    <trip id="veh53" depart="25.11" from="-231431524#12" to="-85568169#2" departLane="best" type="veh_passenger"/>
    <trip id="veh54" depart="25.58" from="-86260506#16" to="824755236" departLane="best" type="veh_passenger"/>
    <trip id="veh55" depart="26.05" from="360339276#3" to="-316859925" departLane="best" type="veh_passenger"/>
    <trip id="veh56" depart="26.53" from="1303397259" to="-28413646#12" departLane="best" type="veh_passenger"/>
    <trip id="veh57" depart="27.00" from="43705783#2" to="360314903#0" departLane="best" type="veh_passenger"/>
    <trip id="veh58" depart="27.47" from="-319392759#3" to="28121206#0" departLane="best" type="veh_passenger" departSpeed="max"/>
    <trip id="veh59" depart="27.95" from="235210803#1" to="-28121214#8" departLane="best" type="veh_passenger"/>
    <trip id="veh60" depart="28.42" from="316169375#1" to="193614218#0" departLane="best" type="veh_passenger"/>
    <trip id="veh61" depart="28.90" from="316859933#0" to="193442320#1" departLane="best" type="veh_passenger" departSpeed="max"/>
    <trip id="veh62" depart="29.37" from="-1042958049" to="-326154546#3" departLane="best" type="veh_passenger" departSpeed="max"/>
    <trip id="veh63" depart="29.84" from="-1213221451" to="727779330#7" departLane="best" type="veh_passenger" departSpeed="max"/>
    <trip id="veh64" depart="30.32" from="360823224#1" to="324888746#1" departLane="best" type="veh_passenger"/>
    <trip id="veh65" depart="30.79" from="-319658470#0" to="-193442676#5" departLane="best" type="veh_passenger"/>
    <trip id="veh66" depart="31.26" from="360823215" to="822386561#0" departLane="best" type="veh_passenger"/>
    <trip id="veh67" depart="31.74" from="-229549754#5" to="1256477344" departLane="best" type="veh_passenger"/>
    <trip id="veh68" depart="32.21" from="-193442674#2" to="316003313#1" departLane="best" type="veh_passenger"/>
    <trip id="veh69" depart="32.69" from="316353905#3" to="-257431282#0" departLane="best" type="veh_passenger"/>
    <trip id="veh70" depart="33.16" from="1202288396#8" to="229492756#11" departLane="best" type="veh_passenger"/>
    <trip id="veh71" depart="33.63" from="-315993718#2" to="360314931#1" departLane="best" type="veh_passenger"/>
    <trip id="veh72" depart="34.11" from="-824768473" to="-28485664#0" departLane="best" type="veh_passenger"/>
    <trip id="veh73" depart="34.58" from="193614217#5" to="311851901#4" departLane="best" type="veh_passenger"/>
    <trip id="veh74" depart="35.05" from="-28413739#4" to="-326134782#1" departLane="best" type="veh_passenger"/>
    <trip id="veh75" depart="35.53" from="86258058#2" to="28195462#0" departLane="best" type="veh_passenger"/>
    <trip id="veh76" depart="36.00" from="-826361130#0" to="151441963#2" departLane="best" type="veh_passenger"/>
    <trip id="veh77" depart="36.48" from="-232197850#4" to="-309850375" departLane="best" type="veh_passenger"/>
    <trip id="veh78" depart="36.95" from="-331012885" to="232197845#2" departLane="best" type="veh_passenger"/>
    <trip id="veh79" depart="37.42" from="-295826408#0" to="-301611294#2" departLane="best" type="veh_passenger"/>
    <trip id="veh80" depart="37.90" from="-193612723#5" to="267226918#9" departLane="best" type="veh_passenger"/>
    <trip id="veh81" depart="38.37" from="-289066602" to="396126120#0" departLane="best" type="veh_passenger"/>
    <trip id="veh82" depart="38.84" from="360299040#9" to="-229492763#7" departLane="best" type="veh_passenger"/>
    <trip id="veh83" depart="39.32" from="-28420859" to="-26654227#1" departLane="best" type="veh_passenger"/>
    <trip id="veh84" depart="39.79" from="729016168#0" to="230599349#10" departLane="best" type="veh_passenger"/>
    <trip id="veh85" depart="40.27" from="1202287818" to="317375252#1" departLane="best" type="veh_passenger"/>
    <trip id="veh86" depart="40.74" from="319512089" to="-28419868#0" departLane="best" type="veh_passenger"/>
    <trip id="veh87" depart="41.21" from="-230599282#0" to="-8285902#0" departLane="best" type="veh_passenger"/>
    <trip id="veh88" depart="41.69" from="-824768481" to="1202694966#2" departLane="best" type="veh_passenger"/>
    <trip id="veh89" depart="42.16" from="312018294#6" to="28413659#0" departLane="best" type="veh_passenger"/>
    <trip id="veh90" depart="42.63" from="843859633#6" to="-231431522#4" departLane="best" type="veh_passenger"/>
    <trip id="veh91" depart="43.11" from="-727863538#0" to="-360299046#1" departLane="best" type="veh_passenger"/>
    <trip id="veh92" depart="43.58" from="360299053#2" to="-315927367#0" departLane="best" type="veh_passenger"/>
    <trip id="veh93" depart="44.05" from="-28275828#1" to="1075468269#1" departLane="best" type="veh_passenger"/>
    <trip id="veh94" depart="44.53" from="-824764748#3" to="-319392733#0" departLane="best" type="veh_passenger"/>
    <trip id="veh95" depart="45.00" from="-312868521#1" to="50218341#6" departLane="best" type="veh_passenger"/>
    <trip id="veh96" depart="45.48" from="-8285857#17" to="360296413#0" departLane="best" type="veh_passenger"/>
    <trip id="veh97" depart="45.95" from="229492756#14" to="-193442313#1" departLane="best" type="veh_passenger"/>
    <trip id="veh98" depart="46.42" from="947088785#2" to="326154259#3" departLane="best" type="veh_passenger"/>
    <trip id="veh99" depart="46.90" from="826132292#5" to="536403701#0" departLane="best" type="veh_passenger"/>
    <trip id="veh100" depart="47.37" from="358302725#0" to="-28245975#0" departLane="best" type="veh_passenger" departSpeed="max"/>
    <trip id="veh101" depart="47.84" from="1229651192#0" to="-28485686#4" departLane="best" type="veh_passenger"/>
    <trip id="veh102" depart="48.32" from="-50335591#4" to="-193612723#4" departLane="best" type="veh_passenger" departSpeed="max"/>
    <trip id="veh103" depart="48.79" from="-361363852" to="844268677#2" departLane="best" type="veh_passenger" departSpeed="max"/>
    <trip id="veh104" depart="49.27" from="-315993719#1" to="317375250#2" departLane="best" type="veh_passenger"/>
    <trip id="veh105" depart="49.74" from="-86263898#2" to="-826361127#4" departLane="best" type="veh_passenger"/>
    <trip id="veh106" depart="50.21" from="824766246#0" to="86258060#3" departLane="best" type="veh_passenger"/>
    <trip id="veh107" depart="50.69" from="229552430" to="301611294#0" departLane="best" type="veh_passenger"/>
    <trip id="veh108" depart="51.16" from="-267226906#2" to="-319659796#0" departLane="best" type="veh_passenger"/>
    <trip id="veh109" depart="51.63" from="826132292#3" to="231431521#2" departLane="best" type="veh_passenger"/>
    <trip id="veh110" depart="52.11" from="193672401#2" to="314269352#7" departLane="best" type="veh_passenger"/>
    <trip id="veh111" depart="52.58" from="-155751165#3" to="231431531#0" departLane="best" type="veh_passenger"/>
    <trip id="veh112" depart="53.06" from="1314813036#1" to="358304917#1" departLane="best" type="veh_passenger"/>
    <trip id="veh113" depart="53.53" from="-276196056#2" to="824818923" departLane="best" type="veh_passenger"/>
    <trip id="veh114" depart="54.00" from="-229492756#11" to="-28413715#2" departLane="best" type="veh_passenger"/>
    <trip id="veh115" depart="54.48" from="232290205#1" to="28413666#3" departLane="best" type="veh_passenger"/>
    <trip id="veh116" depart="54.95" from="-301611296#1" to="-232295578#1" departLane="best" type="veh_passenger"/>
    <trip id="veh117" depart="55.42" from="361380216#1" to="-315427804#2" departLane="best" type="veh_passenger"/>
    <trip id="veh118" depart="55.90" from="232290202#7" to="26654227#0" departLane="best" type="veh_passenger"/>
    <trip id="veh119" depart="56.37" from="-824755237#2" to="231431526#9" departLane="best" type="veh_passenger"/>
    <trip id="veh120" depart="56.84" from="168753651" to="728048256" departLane="best" type="veh_passenger"/>
    <trip id="veh121" depart="57.32" from="-28419858#1" to="295839766" departLane="best" type="veh_passenger"/>
    <trip id="veh122" depart="57.79" from="-30876667#2" to="-822247617" departLane="best" type="veh_passenger"/>
    <trip id="veh123" depart="58.27" from="28413659#5" to="-319662532" departLane="best" type="veh_passenger"/>
    <trip id="veh124" depart="58.74" from="-319662788#2" to="315268379#1" departLane="best" type="veh_passenger" departSpeed="max"/>
    <trip id="veh125" depart="59.21" from="-193614218#7" to="1190308456" departLane="best" type="veh_passenger"/>
    <trip id="veh126" depart="59.69" from="86263898#4" to="86260506#0" departLane="best" type="veh_passenger"/>
    <trip id="veh127" depart="60.16" from="-193614222#1" to="-28485668#3" departLane="best" type="veh_passenger"/>
    <trip id="veh128" depart="60.63" from="-315993719#1" to="728048250#3" departLane="best" type="veh_passenger"/>
    <trip id="veh129" depart="61.11" from="360828869#0" to="360339277#3" departLane="best" type="veh_passenger" departSpeed="max"/>
    <trip id="veh130" depart="61.58" from="-360483312#0" to="-28195462#1" departLane="best" type="veh_passenger"/>
    <trip id="veh131" depart="62.06" from="326151125#1" to="28451050#0" departLane="best" type="veh_passenger"/>
    <trip id="veh132" depart="62.53" from="257431264" to="85564969#4" departLane="best" type="veh_passenger"/>
    <trip id="veh133" depart="63.00" from="28245964#1" to="-1189305005#3" departLane="best" type="veh_passenger"/>
    <trip id="veh134" depart="63.48" from="319662785#0" to="-319662515" departLane="best" type="veh_passenger"/>
    <trip id="veh135" depart="63.95" from="28275806#11" to="729016166#4" departLane="best" type="veh_passenger"/>
    <trip id="veh136" depart="64.42" from="-233244365#1" to="-232290599#0" departLane="best" type="veh_passenger"/>
    <trip id="veh137" depart="64.90" from="-231429518#0" to="229548700#2" departLane="best" type="veh_passenger"/>
    <trip id="veh138" depart="65.37" from="-316169374#0" to="233244486#1" departLane="best" type="veh_passenger"/>
    <trip id="veh139" depart="65.85" from="302534535" to="-28439197#10" departLane="best" type="veh_passenger"/>
    <trip id="veh140" depart="66.32" from="1254815766#3" to="396126120#0" departLane="best" type="veh_passenger"/>
    <trip id="veh141" depart="66.79" from="358229380#1" to="-230599366#0" departLane="best" type="veh_passenger"/>
    <trip id="veh142" depart="67.27" from="-824768481" to="-319392726#13" departLane="best" type="veh_passenger"/>
    <trip id="veh143" depart="67.74" from="-1059854104" to="316357060#3" departLane="best" type="veh_passenger"/>
    <trip id="veh144" depart="68.21" from="28121208#0" to="-316622214#0" departLane="best" type="veh_passenger"/>
    <trip id="veh145" depart="68.69" from="314269338#4" to="229492762#11" departLane="best" type="veh_passenger"/>
    <trip id="veh146" depart="69.16" from="-826017018#0" to="-1194676642#0" departLane="best" type="veh_passenger"/>
    <trip id="veh147" depart="69.63" from="-193673782#5" to="360823232" departLane="best" type="veh_passenger"/>
    <trip id="veh148" depart="70.11" from="396126127" to="22837906#0" departLane="best" type="veh_passenger"/>
    <trip id="veh149" depart="70.58" from="326154263" to="231431525#5" departLane="best" type="veh_passenger"/>
    <trip id="veh150" depart="71.06" from="-267226849#1" to="-24563843#0" departLane="best" type="veh_passenger"/>
    <trip id="veh151" depart="71.53" from="-319658572#0" to="388965191#10" departLane="best" type="veh_passenger"/>
    <trip id="veh152" depart="72.00" from="319392747#11" to="360296409#0" departLane="best" type="veh_passenger"/>
    <trip id="veh153" depart="72.48" from="396121253#4" to="-28451181#3" departLane="best" type="veh_passenger"/>
    <trip id="veh154" depart="72.95" from="-312868520#3" to="-231431529" departLane="best" type="veh_passenger"/>
    <trip id="veh155" depart="73.42" from="316860957#1" to="360828871" departLane="best" type="veh_passenger"/>
    <trip id="veh156" depart="73.90" from="-728948650" to="26654372#19" departLane="best" type="veh_passenger"/>
    <trip id="veh157" depart="74.37" from="-267226905#1" to="727863538#0" departLane="best" type="veh_passenger"/>
    <trip id="veh158" depart="74.85" from="360314559" to="826375736#1" departLane="best" type="veh_passenger" departSpeed="max"/>
    <trip id="veh159" depart="75.32" from="319659786#2" to="360823220" departLane="best" type="veh_passenger"/>
    <trip id="veh160" depart="75.79" from="-1256428454" to="312868524#0" departLane="best" type="veh_passenger" departSpeed="max"/>
    <trip id="veh161" depart="76.27" from="-326154285#1" to="728025063#2" departLane="best" type="veh_passenger"/>
    <trip id="veh162" depart="76.74" from="319392763#5" to="360299046#1" departLane="best" type="veh_passenger"/>
    <trip id="veh163" depart="77.21" from="319659786#2" to="-317031355#1" departLane="best" type="veh_passenger"/>
    <trip id="veh164" depart="77.69" from="319060210#1" to="-232197848#3" departLane="best" type="veh_passenger"/>
    <trip id="veh165" depart="78.16" from="360330176#3" to="360294166#1" departLane="best" type="veh_passenger"/>
    <trip id="veh166" depart="78.64" from="-28451050#8" to="319659801#0" departLane="best" type="veh_passenger"/>
    <trip id="veh167" depart="79.11" from="1059854108#2" to="-320649152#0" departLane="best" type="veh_passenger"/>
    <trip id="veh168" depart="79.58" from="319392744#5" to="-31148790" departLane="best" type="veh_passenger"/>
    <trip id="veh169" depart="80.06" from="-1254815767#0" to="-28419915#0" departLane="best" type="veh_passenger"/>
    <trip id="veh170" depart="80.53" from="-326154259#0" to="360299047#2" departLane="best" type="veh_passenger"/>
    <trip id="veh171" depart="81.00" from="826132287#1" to="-319392738" departLane="best" type="veh_passenger"/>
    <trip id="veh172" depart="81.48" from="28121214#37" to="-822573612" departLane="best" type="veh_passenger"/>
    <trip id="veh173" depart="81.95" from="8285857#7" to="193442672" departLane="best" type="veh_passenger"/>
    <trip id="veh174" depart="82.42" from="822205850#0" to="-232290598#3" departLane="best" type="veh_passenger"/>
    <trip id="veh175" depart="82.90" from="826345305" to="-28413646#11" departLane="best" type="veh_passenger"/>
    <trip id="veh176" depart="83.37" from="824859287" to="-316859939#0" departLane="best" type="veh_passenger"/>
    <trip id="veh177" depart="83.85" from="-231429522#1" to="-85568167#9" departLane="best" type="veh_passenger"/>
    <trip id="veh178" depart="84.32" from="312018293#1" to="-326134802#0" departLane="best" type="veh_passenger"/>
    <trip id="veh179" depart="84.79" from="233249039#11" to="1388770191#6" departLane="best" type="veh_passenger"/>
    <trip id="veh180" depart="85.27" from="-383291585#1" to="231429517#7" departLane="best" type="veh_passenger"/>
    <trip id="veh181" depart="85.74" from="-313176066#2" to="28452286#6" departLane="best" type="veh_passenger"/>
    <trip id="veh182" depart="86.21" from="-1042961557" to="518467877#0" departLane="best" type="veh_passenger"/>
    <trip id="veh183" depart="86.69" from="193612723#3" to="301611300#3" departLane="best" type="veh_passenger"/>
    <trip id="veh184" depart="87.16" from="314269345#2" to="28413610#2" departLane="best" type="veh_passenger"/>
    <trip id="veh185" depart="87.64" from="-360323421" to="-229492762#3" departLane="best" type="veh_passenger"/>
    <trip id="veh186" depart="88.11" from="28275806#8" to="-358304917#3" departLane="best" type="veh_passenger"/>
    <trip id="veh187" depart="88.58" from="-319662528#2" to="358036178#0" departLane="best" type="veh_passenger"/>
    <trip id="veh188" depart="89.06" from="305502411#0" to="-319662536" departLane="best" type="veh_passenger"/>
    <trip id="veh189" depart="89.53" from="-319659790#2" to="-824764745#0" departLane="best" type="veh_passenger"/>
    <trip id="veh190" depart="90.00" from="-727779328#1" to="-319659791#0" departLane="best" type="veh_passenger"/>
    <trip id="veh191" depart="90.48" from="-232290599#3" to="-826361112" departLane="best" type="veh_passenger"/>
    <trip id="veh192" depart="90.95" from="822233244#0" to="28413675#1" departLane="best" type="veh_passenger"/>
    <trip id="veh193" depart="91.43" from="396126123#2" to="257431338#5" departLane="best" type="veh_passenger"/>
    <trip id="veh194" depart="91.90" from="-319392764#1" to="229486918#5" departLane="best" type="veh_passenger"/>
    <trip id="veh195" depart="92.37" from="-1042958049" to="-319392763#10" departLane="best" type="veh_passenger" departSpeed="max"/>
    <trip id="veh196" depart="92.85" from="-826123066" to="231431523#11" departLane="best" type="veh_passenger"/>
    <trip id="veh197" depart="93.32" from="28245970#0" to="1202288396#8" departLane="best" type="veh_passenger"/>
    <trip id="veh198" depart="93.79" from="-827217845#0" to="-28485686#3" departLane="best" type="veh_passenger"/>
    <trip id="veh199" depart="94.27" from="1202288396#2" to="388965191#9" departLane="best" type="veh_passenger"/>
    <trip id="veh200" depart="94.74" from="319392747#1" to="-28245996#8" departLane="best" type="veh_passenger"/>
    <trip id="veh201" depart="95.22" from="-229549751#0" to="140350237#5" departLane="best" type="veh_passenger"/>
    <trip id="veh202" depart="95.69" from="28119664#9" to="-360294187#2" departLane="best" type="veh_passenger"/>
    <trip id="veh203" depart="96.16" from="319662792#0" to="315268374#3" departLane="best" type="veh_passenger"/>
    <trip id="veh204" depart="96.64" from="28413665#8" to="-309508217#2" departLane="best" type="veh_passenger"/>
    <trip id="veh205" depart="97.11" from="-28413689#2" to="-1256758488" departLane="best" type="veh_passenger"/>
    <trip id="veh206" depart="97.58" from="-311851901#0" to="1215933578#0" departLane="best" type="veh_passenger"/>
    <trip id="veh207" depart="98.06" from="358304913#5" to="-229549752#1" departLane="best" type="veh_passenger"/>
    <trip id="veh208" depart="98.53" from="-822574250#0" to="267226912" departLane="best" type="veh_passenger"/>
    <trip id="veh209" depart="99.00" from="-28413665#2" to="28422536#9" departLane="best" type="veh_passenger"/>
    <trip id="veh210" depart="99.48" from="1287576885#3" to="-315268371#4" departLane="best" type="veh_passenger"/>
    <trip id="veh211" depart="99.95" from="28245975#0" to="-1100653235#0" departLane="best" type="veh_passenger"/>
    <trip id="veh212" depart="100.43" from="315927359#1" to="316353905#9" departLane="best" type="veh_passenger"/>
    <trip id="veh213" depart="100.90" from="-28245914#6" to="824768472" departLane="best" type="veh_passenger"/>
    <trip id="veh214" depart="101.37" from="151441963#3" to="-193440381#1" departLane="best" type="veh_passenger"/>
    <trip id="veh215" depart="101.85" from="-312868519#2" to="358036180" departLane="best" type="veh_passenger"/>
    <trip id="veh216" depart="102.32" from="-99770070#2" to="319392756#4" departLane="best" type="veh_passenger"/>
    <trip id="veh217" depart="102.79" from="28275826#7" to="85564969#4" departLane="best" type="veh_passenger"/>
    <trip id="veh218" depart="103.27" from="232290206#10" to="823441931#0" departLane="best" type="veh_passenger"/>
    <trip id="veh219" depart="103.74" from="361382339#2" to="257431275" departLane="best" type="veh_passenger"/>
    <trip id="veh220" depart="104.22" from="305502408#6" to="1369845151" departLane="best" type="veh_passenger"/>
    <trip id="veh221" depart="104.69" from="326134794#5" to="229486918#5" departLane="best" type="veh_passenger"/>
    <trip id="veh222" depart="105.16" from="388965191#6" to="314218047#9" departLane="best" type="veh_passenger"/>
    <trip id="veh223" depart="105.64" from="1202288396#6" to="-316170703#0" departLane="best" type="veh_passenger"/>
    <trip id="veh224" depart="106.11" from="-31257277#2" to="28119685#3" departLane="best" type="veh_passenger"/>
    <trip id="veh225" depart="106.58" from="316353905#3" to="168752556#0" departLane="best" type="veh_passenger"/>
    <trip id="veh226" depart="107.06" from="-229486918#1" to="-319392761#0" departLane="best" type="veh_passenger"/>
    <trip id="veh227" depart="107.53" from="-316169372#4" to="-326154288" departLane="best" type="veh_passenger"/>
    <trip id="veh228" depart="108.01" from="193614218#5" to="-267226879" departLane="best" type="veh_passenger"/>
    <trip id="veh229" depart="108.48" from="-295826411#2" to="28420852#9" departLane="best" type="veh_passenger"/>
    <trip id="veh230" depart="108.95" from="28452286#6-AddedOffRampEdge" to="-193674412#8" departLane="best" type="veh_passenger"/>
    <trip id="veh231" depart="109.43" from="-729016165" to="193673088#0" departLane="best" type="veh_passenger" departSpeed="max"/>
    <trip id="veh232" depart="109.90" from="-823441931#1" to="-28439278#1" departLane="best" type="veh_passenger"/>
    <trip id="veh233" depart="110.37" from="-824764732" to="396121470" departLane="best" type="veh_passenger"/>
    <trip id="veh234" depart="110.85" from="231431526#14" to="28422536#10" departLane="best" type="veh_passenger"/>
    <trip id="veh235" depart="111.32" from="360294225#1" to="316169375#1" departLane="best" type="veh_passenger"/>
    <trip id="veh236" depart="111.79" from="-361366053" to="-1103401466" departLane="best" type="veh_passenger" departSpeed="max"/>
    <trip id="veh237" depart="112.27" from="-360296413#3" to="315427804#7" departLane="best" type="veh_passenger" departSpeed="max"/>
    <trip id="veh238" depart="112.74" from="360279144#1" to="824731617#2" departLane="best" type="veh_passenger"/>
    <trip id="veh239" depart="113.22" from="22837906#1" to="232295590#4" departLane="best" type="veh_passenger"/>
    <trip id="veh240" depart="113.69" from="-28439232#6" to="-301418944#2" departLane="best" type="veh_passenger"/>
    <trip id="veh241" depart="114.16" from="-826361120#1" to="-1303255997#2" departLane="best" type="veh_passenger"/>
    <trip id="veh242" depart="114.64" from="-326154544#0" to="28413689#3" departLane="best" type="veh_passenger"/>
    <trip id="veh243" depart="115.11" from="-728422516" to="-28245970#1" departLane="best" type="veh_passenger"/>
    <trip id="veh244" depart="115.58" from="1189305005#1" to="-24563843#2" departLane="best" type="veh_passenger"/>
    <trip id="veh245" depart="116.06" from="267226854" to="-1298275429#0" departLane="best" type="veh_passenger"/>
    <trip id="veh246" depart="116.53" from="-43705783#3" to="230599263#0" departLane="best" type="veh_passenger"/>
    <trip id="veh247" depart="117.01" from="-1256468872" to="28121214#23" departLane="best" type="veh_passenger" departSpeed="max"/>
    <trip id="veh248" depart="117.48" from="-233249034#4" to="1202264324" departLane="best" type="veh_passenger"/>
    <trip id="veh249" depart="117.95" from="-1387158586" to="-43706093#1" departLane="best" type="veh_passenger"/>